ZINC000000066357
     RDKit          3D

 19 19  0  0  1  0  0  0  0  0999 V2000
    0.8627    7.5136  -20.2303 C   0  0  0  0  0  0  0  0  0  0  0  0
    0.9474    6.5059  -21.3629 C   0  0  0  0  0  0  0  0  0  0  0  0
    0.3488    5.3209  -21.1209 N   0  0  0  0  0  0  0  0  0  0  0  0
    0.3655    4.3740  -22.0863 C   0  0  0  0  0  0  0  0  0  0  0  0
   -0.3656    3.0772  -21.7629 C   0  0  0  0  0  0  0  0  0  0  0  0
   -1.6806    3.2768  -21.8495 F   0  0  0  0  0  0  0  0  0  0  0  0
   -0.0266    2.1132  -22.6171 F   0  0  0  0  0  0  0  0  0  0  0  0
   -0.0763    2.6646  -20.5278 F   0  0  0  0  0  0  0  0  0  0  0  0
    0.9775    4.5784  -23.3428 C   0  0  0  0  0  0  0  0  0  0  0  0
    1.5962    5.8149  -23.5979 C   0  0  0  0  0  0  0  0  0  0  0  0
    1.5937    6.7981  -22.5891 C   0  0  0  0  0  0  0  0  0  0  0  0
    2.2160    8.0433  -22.8398 N   0  0  0  0  0  0  0  0  0  0  0  0
    3.3666    8.4324  -22.2736 C   0  0  0  0  0  0  0  0  0  0  0  0
    3.9506    7.7677  -21.4172 O   0  0  0  0  0  0  0  0  0  0  0  0
    3.8258    9.6903  -22.8243 C   0  0  0  0  0  0  0  0  0  0  0  0
    5.0821   10.1152  -22.6082 C   0  0  0  0  0  0  0  0  0  0  0  0
    5.6527   11.4216  -23.1831 C   0  0  0  0  0  0  0  0  0  0  0  0
    6.7237   11.3095  -23.8169 O   0  0  0  0  0  0  0  0  0  0  0  0
    4.9817   12.4606  -23.0169 O   0  0  0  0  0  0  0  0  0  0  0  0
  1  2  1  0
  2  3  2  0
  2 11  1  0
  3  4  1  0
  4  5  1  0
  4  9  2  0
  5  6  1  0
  5  7  1  0
  5  8  1  0
  9 10  1  0
 10 11  2  0
 11 12  1  0
 12 13  1  0
 13 14  2  0
 13 15  1  0
 15 16  2  0
 16 17  1  0
 17 18  2  0
 17 19  1  0
M  CHG  1  19  -1
M  END
>  <s_m_entry_id>  (1) 
25

>  <s_m_entry_name>  (1) 
ZINC000000066357.1

>  <s_m_Source_Path>  (1) 
/home/bhw/schrodinger/schrodinger/0995dock

>  <s_m_Source_File>  (1) 
0995dock_pv.maegz

>  <i_m_Source_File_Index>  (1) 
25

>  <zinc_id>  (1) 
ZINC000000066357

>  <smiles>  (1) 
Cc1nc(C(F)(F)F)ccc1NC(=O)/C=C/C(=O)O

>  <chiral flag>  (1) 
0

>  <version>  (1) 
0

>  <i_lp_mmshare_version>  (1) 
44012

>  <s_epik_input>  (1) 
W0NIM11jMW5jKEMoRikoRilGKVtjSF1bY0hdYzFbTkhdQyg9TykvW0NIXT1bQ0hdL0MoPU8pW09IXQ==

>  <s_epik_cmdline>  (1) 
J2VwaWtfcHl0aG9uJywgJy1waCcsICc3LjAnLCAnLXRuJywgJzgnLCAnLW1hJywgJzIwMCcsICctaW1hZScsICc8aW5maWxlLm1hZT4nLCAnLW9tYWUnLCAnPG91dGZpbGUubWFlPic=

>  <r_epik_Ionization_Penalty>  (1) 
0.0140

>  <r_epik_Ionization_Penalty_Charging>  (1) 
0.0002

>  <r_epik_Ionization_Penalty_Neutral>  (1) 
0.0137

>  <r_epik_State_Penalty>  (1) 
0.0000

>  <r_epik_Charging_Adjusted_Penalty>  (1) 
0.000224244465590227

>  <i_epik_Tot_Q>  (1) 
-1

>  <i_epik_Tot_abs_Q>  (1) 
1

>  <i_f3d_flags>  (1) 
0

>  <s_lp_Force_Field>  (1) 
OPLS_2005

>  <r_lp_Energy>  (1) 
7.486242

>  <b_lp_Chiralities_Consistent>  (1) 
1

>  <s_lp_Variant>  (1) 
ZINC000000066357-1

>  <s_m_job_name>  (1) 
zinc0995

>  <s_i_glide_gridfile>  (1) 
zincglide

>  <i_i_glide_lignum>  (1) 
56

>  <i_i_glide_rotatable_bonds>  (1) 
5

>  <r_i_docking_score>  (1) 
-6.35979409296096

>  <r_i_glide_ligand_efficiency>  (1) 
-0.334726004892682

>  <r_i_glide_ligand_efficiency_sa>  (1) 
-0.893183422449101

>  <r_i_glide_ligand_efficiency_ln>  (1) 
-1.61234439841808

>  <r_i_glide_gscore>  (1) 
-6.35979409296096

>  <r_i_glide_lipo>  (1) 
-1.09174853498387

>  <r_i_glide_hbond>  (1) 
-0.482141352685249

>  <r_i_glide_metal>  (1) 
0

>  <r_i_glide_rewards>  (1) 
-2.70963275986162

>  <r_i_glide_evdw>  (1) 
-21.8569583892822

>  <r_i_glide_ecoul>  (1) 
-11.0237550735474

>  <r_i_glide_erotb>  (1) 
0.672875548373249

>  <r_i_glide_esite>  (1) 
-0.00273581330725347

>  <r_i_glide_emodel>  (1) 
-47.2197548797152

>  <r_i_glide_energy>  (1) 
-32.8807134628296

>  <r_i_glide_einternal>  (1) 
5.93646287918091

>  <i_i_glide_confnum>  (1) 
10

>  <i_i_glide_posenum>  (1) 
252

>  <r_i_glide_eff_state_penalty>  (1) 
0

>  <r_lp_tautomer_probability>  (1) 
1

>  <s_m_subgroup_title>  (1) 
0995dock_pv

>  <s_m_subgroupid>  (1) 
0995dock_pv

>  <b_m_subgroup_collapsed>  (1) 
0

>  <class>  (1) 
7

>  <isCentroid>  (1) 
flase

$$$$
ZINC000000074334
     RDKit          3D

 17 17  0  0  1  0  0  0  0  0999 V2000
    3.0802   11.6871  -22.4154 C   0  0  0  0  0  0  0  0  0  0  0  0
    4.2375   10.6715  -22.4861 C   0  0  1  0  0  0  0  0  0  0  0  0
    3.8865    9.5897  -23.3502 O   0  0  0  0  0  0  0  0  0  0  0  0
    3.0869    8.5650  -22.8933 C   0  0  0  0  0  0  0  0  0  0  0  0
    2.6357    8.4297  -21.5582 C   0  0  0  0  0  0  0  0  0  0  0  0
    1.8657    7.3150  -21.1785 C   0  0  0  0  0  0  0  0  0  0  0  0
    1.5234    6.3142  -22.1087 C   0  0  0  0  0  0  0  0  0  0  0  0
    0.8232    5.2299  -21.6239 O   0  0  0  0  0  0  0  0  0  0  0  0
    0.4343    4.2191  -22.4477 C   0  0  0  0  0  0  0  0  0  0  0  0
   -0.4036    4.6612  -23.4151 F   0  0  0  0  0  0  0  0  0  0  0  0
    1.4918    3.5861  -23.0164 F   0  0  0  0  0  0  0  0  0  0  0  0
   -0.2421    3.2894  -21.7331 F   0  0  0  0  0  0  0  0  0  0  0  0
    1.9467    6.4669  -23.4538 C   0  0  0  0  0  0  0  0  0  0  0  0
    2.7182    7.5824  -23.8342 C   0  0  0  0  0  0  0  0  0  0  0  0
    5.5267   11.3075  -23.0164 C   0  0  0  0  0  0  0  0  0  0  0  0
    6.4024   10.5174  -23.4314 O   0  0  0  0  0  0  0  0  0  0  0  0
    5.6496   12.5516  -23.0185 O   0  0  0  0  0  0  0  0  0  0  0  0
  2  1  1  6
  2  3  1  0
  2 15  1  0
  3  4  1  0
  4  5  2  0
  4 14  1  0
  5  6  1  0
  6  7  2  0
  7  8  1  0
  7 13  1  0
  8  9  1  0
  9 10  1  0
  9 11  1  0
  9 12  1  0
 13 14  2  0
 15 16  2  0
 15 17  1  0
M  CHG  1  17  -1
M  END
>  <s_m_entry_id>  (2) 
14

>  <s_m_entry_name>  (2) 
ZINC000000074334.1

>  <s_m_Source_Path>  (2) 
/home/bhw/schrodinger/schrodinger/0995dock

>  <s_m_Source_File>  (2) 
0995dock_pv.maegz

>  <i_m_Source_File_Index>  (2) 
14

>  <zinc_id>  (2) 
ZINC000000074334

>  <smiles>  (2) 
C[C@@H](Oc1ccc(OC(F)(F)F)cc1)C(=O)O

>  <chiral flag>  (2) 
0

>  <version>  (2) 
0

>  <i_lp_mmshare_version>  (2) 
44012

>  <s_epik_input>  (2) 
Tz1DKFtPSF0pW0NAQEhdKFtDSDNdKU9jMVtjSF1bY0hdYyhPQyhGKShGKUYpW2NIXVtjSF0x

>  <s_epik_cmdline>  (2) 
J2VwaWtfcHl0aG9uJywgJy1waCcsICc3LjAnLCAnLXRuJywgJzgnLCAnLW1hJywgJzIwMCcsICctaW1hZScsICc8aW5maWxlLm1hZT4nLCAnLW9tYWUnLCAnPG91dGZpbGUubWFlPic=

>  <r_epik_Ionization_Penalty>  (2) 
0.0001

>  <r_epik_Ionization_Penalty_Charging>  (2) 
0.0001

>  <r_epik_Ionization_Penalty_Neutral>  (2) 
0.0000

>  <r_epik_State_Penalty>  (2) 
0.0000

>  <r_epik_Charging_Adjusted_Penalty>  (2) 
7.02671224251723e-05

>  <i_epik_Tot_Q>  (2) 
-1

>  <i_epik_Tot_abs_Q>  (2) 
1

>  <i_f3d_flags>  (2) 
0

>  <s_lp_Force_Field>  (2) 
OPLS_2005

>  <r_lp_Energy>  (2) 
11.058315

>  <b_lp_Chiralities_Consistent>  (2) 
1

>  <s_lp_Variant>  (2) 
ZINC000000074334-1

>  <s_m_job_name>  (2) 
zinc0995

>  <s_i_glide_gridfile>  (2) 
zincglide

>  <i_i_glide_lignum>  (2) 
68

>  <i_i_glide_rotatable_bonds>  (2) 
5

>  <r_i_docking_score>  (2) 
-6.42995693409301

>  <r_i_glide_ligand_efficiency>  (2) 
-0.378232760829

>  <r_i_glide_ligand_efficiency_sa>  (2) 
-0.972542933984974

>  <r_i_glide_ligand_efficiency_ln>  (2) 
-1.67743257600397

>  <r_i_glide_gscore>  (2) 
-6.42995693409301

>  <r_i_glide_lipo>  (2) 
-0.592179269820863

>  <r_i_glide_hbond>  (2) 
-0.188838969620009

>  <r_i_glide_metal>  (2) 
0

>  <r_i_glide_rewards>  (2) 
-3.87746427240536

>  <r_i_glide_evdw>  (2) 
-20.9394855499268

>  <r_i_glide_ecoul>  (2) 
-8.7725887298584

>  <r_i_glide_erotb>  (2) 
0.591388164728324

>  <r_i_glide_esite>  (2) 
0

>  <r_i_glide_emodel>  (2) 
-46.8616396385496

>  <r_i_glide_energy>  (2) 
-29.7120742797852

>  <r_i_glide_einternal>  (2) 
0.469675213098526

>  <i_i_glide_confnum>  (2) 
8

>  <i_i_glide_posenum>  (2) 
301

>  <r_i_glide_eff_state_penalty>  (2) 
0

>  <r_lp_tautomer_probability>  (2) 
1

>  <s_m_subgroup_title>  (2) 
0995dock_pv

>  <s_m_subgroupid>  (2) 
0995dock_pv

>  <b_m_subgroup_collapsed>  (2) 
0

>  <class>  (2) 
3

>  <isCentroid>  (2) 
true

$$$$
ZINC000000161519
     RDKit          3D

 16 16  0  0  1  0  0  0  0  0999 V2000
    5.4394   12.5299  -23.0169 O   0  0  0  0  0  0  0  0  0  0  0  0
    5.8079   11.3372  -23.0413 C   0  0  0  0  0  0  0  0  0  0  0  0
    6.7236   10.9130  -23.7760 O   0  0  0  0  0  0  0  0  0  0  0  0
    5.1187   10.3232  -22.1271 C   0  0  0  0  0  0  0  0  0  0  0  0
    3.6754   10.7391  -21.7800 C   0  0  0  0  0  0  0  0  0  0  0  0
    2.7233    9.3735  -21.0443 S   0  0  0  0  0  0  0  0  0  0  0  0
    2.3894    8.1651  -22.2949 C   0  0  0  0  0  0  0  0  0  0  0  0
    2.7240    8.3923  -23.6455 C   0  0  0  0  0  0  0  0  0  0  0  0
    2.4626    7.4094  -24.6154 C   0  0  0  0  0  0  0  0  0  0  0  0
    1.8667    6.1927  -24.2352 C   0  0  0  0  0  0  0  0  0  0  0  0
    1.5029    5.9620  -22.8922 C   0  0  0  0  0  0  0  0  0  0  0  0
    0.8156    4.6583  -22.5141 C   0  0  0  0  0  0  0  0  0  0  0  0
   -0.4158    4.6483  -23.0220 F   0  0  0  0  0  0  0  0  0  0  0  0
    1.4942    3.6266  -23.0164 F   0  0  0  0  0  0  0  0  0  0  0  0
    0.7262    4.5073  -21.1922 F   0  0  0  0  0  0  0  0  0  0  0  0
    1.7680    6.9563  -21.9244 C   0  0  0  0  0  0  0  0  0  0  0  0
  1  2  2  0
  2  3  1  0
  2  4  1  0
  4  5  1  0
  5  6  1  0
  6  7  1  0
  7  8  2  0
  7 16  1  0
  8  9  1  0
  9 10  2  0
 10 11  1  0
 11 12  1  0
 11 16  2  0
 12 13  1  0
 12 14  1  0
 12 15  1  0
M  CHG  1   3  -1
M  END
>  <s_m_entry_id>  (3) 
10

>  <s_m_entry_name>  (3) 
ZINC000000161519.1

>  <s_m_Source_Path>  (3) 
/home/bhw/schrodinger/schrodinger/0995dock

>  <s_m_Source_File>  (3) 
0995dock_pv.maegz

>  <i_m_Source_File_Index>  (3) 
10

>  <zinc_id>  (3) 
ZINC000000161519

>  <smiles>  (3) 
O=C(O)CCSc1cccc(C(F)(F)F)c1

>  <chiral flag>  (3) 
0

>  <version>  (3) 
0

>  <i_lp_mmshare_version>  (3) 
44012

>  <s_epik_input>  (3) 
Tz1DKFtPSF0pW0NIMl1bQ0gyXVNjMVtjSF1bY0hdW2NIXWMoQyhGKShGKUYpW2NIXTE=

>  <s_epik_cmdline>  (3) 
J2VwaWtfcHl0aG9uJywgJy1waCcsICc3LjAnLCAnLXRuJywgJzgnLCAnLW1hJywgJzIwMCcsICctaW1hZScsICc8aW5maWxlLm1hZT4nLCAnLW9tYWUnLCAnPG91dGZpbGUubWFlPic=

>  <r_epik_Ionization_Penalty>  (3) 
0.0013

>  <r_epik_Ionization_Penalty_Charging>  (3) 
0.0013

>  <r_epik_Ionization_Penalty_Neutral>  (3) 
0.0000

>  <r_epik_State_Penalty>  (3) 
0.0009

>  <r_epik_Charging_Adjusted_Penalty>  (3) 
0.00223129494241756

>  <i_epik_Tot_Q>  (3) 
-1

>  <i_epik_Tot_abs_Q>  (3) 
1

>  <i_f3d_flags>  (3) 
0

>  <s_lp_Force_Field>  (3) 
OPLS_2005

>  <r_lp_Energy>  (3) 
5.036315

>  <b_lp_Chiralities_Consistent>  (3) 
1

>  <s_lp_Variant>  (3) 
ZINC000000161519-1

>  <s_m_job_name>  (3) 
zinc0995

>  <s_i_glide_gridfile>  (3) 
zincglide

>  <i_i_glide_lignum>  (3) 
293

>  <i_i_glide_rotatable_bonds>  (3) 
5

>  <r_i_docking_score>  (3) 
-6.56410501355911

>  <r_i_glide_ligand_efficiency>  (3) 
-0.410256563347444

>  <r_i_glide_ligand_efficiency_sa>  (3) 
-1.03378175908253

>  <r_i_glide_ligand_efficiency_ln>  (3) 
-1.73994715481787

>  <r_i_glide_gscore>  (3) 
-6.56500501355911

>  <r_i_glide_lipo>  (3) 
-1.06562222154737

>  <r_i_glide_hbond>  (3) 
-0.294310054544131

>  <r_i_glide_metal>  (3) 
0

>  <r_i_glide_rewards>  (3) 
-3.87104203033504

>  <r_i_glide_evdw>  (3) 
-20.8358058929443

>  <r_i_glide_ecoul>  (3) 
-5.88903570175171

>  <r_i_glide_erotb>  (3) 
0.591114942777406

>  <r_i_glide_esite>  (3) 
0

>  <r_i_glide_emodel>  (3) 
-43.7217218757384

>  <r_i_glide_energy>  (3) 
-26.724841594696

>  <r_i_glide_einternal>  (3) 
0.258829534053802

>  <i_i_glide_confnum>  (3) 
1

>  <i_i_glide_posenum>  (3) 
22

>  <r_i_glide_eff_state_penalty>  (3) 
0.0009

>  <s_m_subgroup_title>  (3) 
0995dock_pv

>  <s_m_subgroupid>  (3) 
0995dock_pv

>  <b_m_subgroup_collapsed>  (3) 
0

>  <class>  (3) 
4

>  <isCentroid>  (3) 
true

$$$$
ZINC000000165623
     RDKit          3D

 13 13  0  0  1  0  0  0  0  0999 V2000
    6.2597   11.3133  -23.7079 O   0  0  0  0  0  0  0  0  0  0  0  0
    5.5244   10.6490  -22.9373 C   0  0  0  0  0  0  0  0  0  0  0  0
    5.9220    9.7139  -22.2143 O   0  0  0  0  0  0  0  0  0  0  0  0
    4.0354   10.9996  -22.8718 C   0  0  0  0  0  0  0  0  0  0  0  0
    3.1465    9.7996  -22.4699 C   0  0  0  0  0  0  0  0  0  0  0  0
    3.0404    8.5136  -23.7606 S   0  0  0  0  0  0  0  0  0  0  0  0
    2.1813    7.1190  -23.0987 C   0  0  0  0  0  0  0  0  0  0  0  0
    1.4723    7.1987  -21.8807 C   0  0  0  0  0  0  0  0  0  0  0  0
    0.7933    6.0656  -21.3899 C   0  0  0  0  0  0  0  0  0  0  0  0
    0.8190    4.8563  -22.1128 C   0  0  0  0  0  0  0  0  0  0  0  0
    0.1688    3.7683  -21.6371 F   0  0  0  0  0  0  0  0  0  0  0  0
    1.5263    4.7778  -23.3276 C   0  0  0  0  0  0  0  0  0  0  0  0
    2.2085    5.9075  -23.8174 C   0  0  0  0  0  0  0  0  0  0  0  0
  1  2  2  0
  2  3  1  0
  2  4  1  0
  4  5  1  0
  5  6  1  0
  6  7  1  0
  7  8  2  0
  7 13  1  0
  8  9  1  0
  9 10  2  0
 10 11  1  0
 10 12  1  0
 12 13  2  0
M  CHG  1   3  -1
M  END
>  <s_m_entry_id>  (4) 
74

>  <s_m_entry_name>  (4) 
ZINC000000165623.1

>  <s_m_Source_Path>  (4) 
/home/bhw/schrodinger/schrodinger/0995dock

>  <s_m_Source_File>  (4) 
0995dock_pv.maegz

>  <i_m_Source_File_Index>  (4) 
74

>  <zinc_id>  (4) 
ZINC000000165623

>  <smiles>  (4) 
O=C(O)CCSc1ccc(F)cc1

>  <chiral flag>  (4) 
0

>  <version>  (4) 
0

>  <i_lp_mmshare_version>  (4) 
44012

>  <s_epik_input>  (4) 
Tz1DKFtPSF0pW0NIMl1bQ0gyXVNjMVtjSF1bY0hdYyhGKVtjSF1bY0hdMQ==

>  <s_epik_cmdline>  (4) 
J2VwaWtfcHl0aG9uJywgJy1waCcsICc3LjAnLCAnLXRuJywgJzgnLCAnLW1hJywgJzIwMCcsICctaW1hZScsICc8aW5maWxlLm1hZT4nLCAnLW9tYWUnLCAnPG91dGZpbGUubWFlPic=

>  <r_epik_Ionization_Penalty>  (4) 
0.0013

>  <r_epik_Ionization_Penalty_Charging>  (4) 
0.0013

>  <r_epik_Ionization_Penalty_Neutral>  (4) 
0.0000

>  <r_epik_State_Penalty>  (4) 
0.0009

>  <r_epik_Charging_Adjusted_Penalty>  (4) 
0.00213706804976906

>  <i_epik_Tot_Q>  (4) 
-1

>  <i_epik_Tot_abs_Q>  (4) 
1

>  <i_f3d_flags>  (4) 
0

>  <s_lp_Force_Field>  (4) 
OPLS_2005

>  <r_lp_Energy>  (4) 
4.991695

>  <b_lp_Chiralities_Consistent>  (4) 
1

>  <s_lp_Variant>  (4) 
ZINC000000165623-1

>  <s_m_job_name>  (4) 
zinc0995

>  <s_i_glide_gridfile>  (4) 
zincglide

>  <i_i_glide_lignum>  (4) 
315

>  <i_i_glide_rotatable_bonds>  (4) 
4

>  <r_i_docking_score>  (4) 
-6.02913669301379

>  <r_i_glide_ligand_efficiency>  (4) 
-0.463779745616445

>  <r_i_glide_ligand_efficiency_sa>  (4) 
-1.0905014023979

>  <r_i_glide_ligand_efficiency_ln>  (4) 
-1.69122646311781

>  <r_i_glide_gscore>  (4) 
-6.03003669301379

>  <r_i_glide_lipo>  (4) 
-0.914499475450131

>  <r_i_glide_hbond>  (4) 
-0.36

>  <r_i_glide_metal>  (4) 
0

>  <r_i_glide_rewards>  (4) 
-2.95558891956631

>  <r_i_glide_evdw>  (4) 
-17.1244812011719

>  <r_i_glide_ecoul>  (4) 
-10.1274042129517

>  <r_i_glide_erotb>  (4) 
0.575386394003999

>  <r_i_glide_esite>  (4) 
0

>  <r_i_glide_emodel>  (4) 
-41.5594796687009

>  <r_i_glide_energy>  (4) 
-27.2518854141235

>  <r_i_glide_einternal>  (4) 
2.57199454307556

>  <i_i_glide_confnum>  (4) 
6

>  <i_i_glide_posenum>  (4) 
390

>  <r_i_glide_eff_state_penalty>  (4) 
0.0009

>  <s_m_subgroup_title>  (4) 
0995dock_pv

>  <s_m_subgroupid>  (4) 
0995dock_pv

>  <b_m_subgroup_collapsed>  (4) 
0

>  <class>  (4) 
4

>  <isCentroid>  (4) 
flase

$$$$
ZINC000000344489
     RDKit          3D

 19 20  0  0  1  0  0  0  0  0999 V2000
    6.3237   10.2116  -22.4328 O   0  0  0  0  0  0  0  0  0  0  0  0
    5.8070   11.1893  -23.0136 C   0  0  0  0  0  0  0  0  0  0  0  0
    6.3232   11.6945  -24.0405 O   0  0  0  0  0  0  0  0  0  0  0  0
    4.5385   11.8475  -22.3648 C   0  0  1  0  0  0  0  0  0  0  0  0
    4.1295   12.9200  -23.2015 O   0  0  0  0  0  0  0  0  0  0  0  0
    3.3940   10.7990  -22.2459 C   0  0  0  0  0  0  0  0  0  0  0  0
    2.0703   11.1472  -22.6172 C   0  0  0  0  0  0  0  0  0  0  0  0
    1.0087   10.2277  -22.5162 C   0  0  0  0  0  0  0  0  0  0  0  0
    1.2385    8.9344  -22.0212 C   0  0  0  0  0  0  0  0  0  0  0  0
    2.5350    8.5681  -21.6252 C   0  0  0  0  0  0  0  0  0  0  0  0
    3.5937    9.4899  -21.7324 C   0  0  0  0  0  0  0  0  0  0  0  0
    4.8502   12.5114  -20.9646 C   0  0  1  0  0  0  0  0  0  0  0  0
    6.2229   12.5157  -20.6166 O   0  0  0  0  0  0  0  0  0  0  0  0
    4.2191   13.8923  -20.7669 C   0  0  0  0  0  0  0  0  0  0  0  0
    4.9353   15.0627  -21.1038 C   0  0  0  0  0  0  0  0  0  0  0  0
    4.3231   16.3268  -21.0098 C   0  0  0  0  0  0  0  0  0  0  0  0
    2.9948   16.4302  -20.5552 C   0  0  0  0  0  0  0  0  0  0  0  0
    2.2792   15.2695  -20.2019 C   0  0  0  0  0  0  0  0  0  0  0  0
    2.8886   14.0038  -20.3099 C   0  0  0  0  0  0  0  0  0  0  0  0
  1  2  2  0
  2  3  1  0
  4  2  1  0
  4  5  1  6
  4  6  1  0
  4 12  1  0
  6  7  2  0
  6 11  1  0
  7  8  1  0
  8  9  2  0
  9 10  1  0
 10 11  2  0
 12 13  1  6
 12 14  1  0
 14 15  2  0
 14 19  1  0
 15 16  1  0
 16 17  2  0
 17 18  1  0
 18 19  2  0
M  CHG  1   3  -1
M  END
>  <s_m_entry_id>  (5) 
114

>  <s_m_entry_name>  (5) 
ZINC000000344489.1

>  <s_m_Source_Path>  (5) 
/home/bhw/schrodinger/schrodinger/0995dock

>  <s_m_Source_File>  (5) 
0995dock_pv.maegz

>  <i_m_Source_File_Index>  (5) 
114

>  <zinc_id>  (5) 
ZINC000000344489

>  <smiles>  (5) 
O=C(O)[C@@](O)(c1ccccc1)[C@@H](O)c1ccccc1

>  <chiral flag>  (5) 
0

>  <version>  (5) 
0

>  <i_lp_mmshare_version>  (5) 
44012

>  <s_epik_input>  (5) 
W2NIXTFbY0hdW2NIXVtjSF1bY0hdYzFbQ0BdKFtPSF0pKEMoPU8pW09IXSlbQ0BASF0oW09IXSljMltjSF1bY0hdW2NIXVtjSF1bY0hdMg==

>  <s_epik_cmdline>  (5) 
J2VwaWtfcHl0aG9uJywgJy1waCcsICc3LjAnLCAnLXRuJywgJzgnLCAnLW1hJywgJzIwMCcsICctaW1hZScsICc8aW5maWxlLm1hZT4nLCAnLW9tYWUnLCAnPG91dGZpbGUubWFlPic=

>  <r_epik_Ionization_Penalty>  (5) 
0.0001

>  <r_epik_Ionization_Penalty_Charging>  (5) 
0.0001

>  <r_epik_Ionization_Penalty_Neutral>  (5) 
0.0000

>  <r_epik_State_Penalty>  (5) 
0.0000

>  <r_epik_Charging_Adjusted_Penalty>  (5) 
9.30344563658789e-05

>  <i_epik_Tot_Q>  (5) 
-1

>  <i_epik_Tot_abs_Q>  (5) 
1

>  <i_f3d_flags>  (5) 
0

>  <s_lp_Force_Field>  (5) 
OPLS_2005

>  <r_lp_Energy>  (5) 
21.851994

>  <b_lp_Chiralities_Consistent>  (5) 
1

>  <s_lp_Variant>  (5) 
ZINC000000344489-1

>  <s_m_job_name>  (5) 
zinc0995

>  <s_i_glide_gridfile>  (5) 
zincglide

>  <i_i_glide_lignum>  (5) 
498

>  <i_i_glide_rotatable_bonds>  (5) 
6

>  <r_i_docking_score>  (5) 
-5.88697195785632

>  <r_i_glide_ligand_efficiency>  (5) 
-0.309840629360859

>  <r_i_glide_ligand_efficiency_sa>  (5) 
-0.826779245416094

>  <r_i_glide_ligand_efficiency_ln>  (5) 
-1.49247383188075

>  <r_i_glide_gscore>  (5) 
-5.88697195785632

>  <r_i_glide_lipo>  (5) 
-0.00704209225981249

>  <r_i_glide_hbond>  (5) 
-0.431272364217579

>  <r_i_glide_metal>  (5) 
0

>  <r_i_glide_rewards>  (5) 
-2.46589509059786

>  <r_i_glide_evdw>  (5) 
-16.0246124267578

>  <r_i_glide_ecoul>  (5) 
-18.2754764556885

>  <r_i_glide_erotb>  (5) 
0.559789678910097

>  <r_i_glide_esite>  (5) 
0

>  <r_i_glide_emodel>  (5) 
-46.523412518508

>  <r_i_glide_energy>  (5) 
-34.3000888824463

>  <r_i_glide_einternal>  (5) 
13.0683546066284

>  <i_i_glide_confnum>  (5) 
20

>  <i_i_glide_posenum>  (5) 
286

>  <r_i_glide_eff_state_penalty>  (5) 
0

>  <r_lp_tautomer_probability>  (5) 
1

>  <s_m_subgroup_title>  (5) 
0995dock_pv

>  <s_m_subgroupid>  (5) 
0995dock_pv

>  <b_m_subgroup_collapsed>  (5) 
0

>  <class>  (5) 
3

>  <isCentroid>  (5) 
flase

$$$$
ZINC000000537529
     RDKit          3D

 19 19  0  0  1  0  0  0  0  0999 V2000
    4.3034   12.4786  -21.4672 C   0  0  0  0  0  0  0  0  0  0  0  0
    4.3196   11.3376  -22.4968 C   0  0  2  0  0  0  0  0  0  0  0  0
    3.5158   10.2288  -21.9771 N   0  0  0  0  0  0  0  0  0  0  0  0
    3.1861    9.1177  -22.6528 C   0  0  0  0  0  0  0  0  0  0  0  0
    3.5251    8.9134  -23.8166 O   0  0  0  0  0  0  0  0  0  0  0  0
    2.4596    8.2759  -21.8967 N   0  0  0  0  0  0  0  0  0  0  0  0
    1.9193    6.9965  -22.2168 C   0  0  0  0  0  0  0  0  0  0  0  0
    2.0977    6.3355  -23.4580 C   0  0  0  0  0  0  0  0  0  0  0  0
    1.5415    5.0598  -23.6679 C   0  0  0  0  0  0  0  0  0  0  0  0
    0.8161    4.4235  -22.6454 C   0  0  0  0  0  0  0  0  0  0  0  0
    0.6344    5.0653  -21.4032 C   0  0  0  0  0  0  0  0  0  0  0  0
   -0.1444    4.3815  -20.2900 C   0  0  0  0  0  0  0  0  0  0  0  0
    0.3450    4.7216  -19.0969 F   0  0  0  0  0  0  0  0  0  0  0  0
   -1.4213    4.7561  -20.3533 F   0  0  0  0  0  0  0  0  0  0  0  0
   -0.0780    3.0542  -20.4041 F   0  0  0  0  0  0  0  0  0  0  0  0
    1.1726    6.3552  -21.2042 C   0  0  0  0  0  0  0  0  0  0  0  0
    5.7720   10.9139  -22.7664 C   0  0  0  0  0  0  0  0  0  0  0  0
    6.3237   10.2016  -21.9032 O   0  0  0  0  0  0  0  0  0  0  0  0
    6.3236   11.3140  -23.8169 O   0  0  0  0  0  0  0  0  0  0  0  0
  2  1  1  1
  2  3  1  0
  2 17  1  0
  3  4  1  0
  4  5  2  0
  4  6  1  0
  6  7  1  0
  7  8  2  0
  7 16  1  0
  8  9  1  0
  9 10  2  0
 10 11  1  0
 11 12  1  0
 11 16  2  0
 12 13  1  0
 12 14  1  0
 12 15  1  0
 17 18  2  0
 17 19  1  0
M  CHG  1  19  -1
M  END
>  <s_m_entry_id>  (6) 
52

>  <s_m_entry_name>  (6) 
ZINC000000537529.1

>  <s_m_Source_Path>  (6) 
/home/bhw/schrodinger/schrodinger/0995dock

>  <s_m_Source_File>  (6) 
0995dock_pv.maegz

>  <i_m_Source_File_Index>  (6) 
52

>  <zinc_id>  (6) 
ZINC000000537529

>  <smiles>  (6) 
C[C@H](NC(=O)Nc1cccc(C(F)(F)F)c1)C(=O)O

>  <chiral flag>  (6) 
0

>  <version>  (6) 
0

>  <i_lp_mmshare_version>  (6) 
44012

>  <s_epik_input>  (6) 
Tz1DKFtPSF0pW0NASF0oW0NIM10pW05IXUMoPU8pW05IXWMxW2NIXVtjSF1bY0hdYyhDKEYpKEYpRilbY0hdMQ==

>  <s_epik_cmdline>  (6) 
J2VwaWtfcHl0aG9uJywgJy1waCcsICc3LjAnLCAnLXRuJywgJzgnLCAnLW1hJywgJzIwMCcsICctaW1hZScsICc8aW5maWxlLm1hZT4nLCAnLW9tYWUnLCAnPG91dGZpbGUubWFlPic=

>  <r_epik_Ionization_Penalty>  (6) 
0.0004

>  <r_epik_Ionization_Penalty_Charging>  (6) 
0.0004

>  <r_epik_Ionization_Penalty_Neutral>  (6) 
0.0000

>  <r_epik_State_Penalty>  (6) 
0.0002

>  <r_epik_Charging_Adjusted_Penalty>  (6) 
0.000567617367130324

>  <i_epik_Tot_Q>  (6) 
-1

>  <i_epik_Tot_abs_Q>  (6) 
1

>  <i_f3d_flags>  (6) 
0

>  <s_lp_Force_Field>  (6) 
OPLS_2005

>  <r_lp_Energy>  (6) 
7.140988

>  <b_lp_Chiralities_Consistent>  (6) 
1

>  <s_lp_Variant>  (6) 
ZINC000000537529-1

>  <s_m_job_name>  (6) 
zinc0995

>  <s_i_glide_gridfile>  (6) 
zincglide

>  <i_i_glide_lignum>  (6) 
666

>  <i_i_glide_rotatable_bonds>  (6) 
6

>  <r_i_docking_score>  (6) 
-6.15015288181157

>  <r_i_glide_ligand_efficiency>  (6) 
-0.323692256937451

>  <r_i_glide_ligand_efficiency_sa>  (6) 
-0.863740951242677

>  <r_i_glide_ligand_efficiency_ln>  (6) 
-1.55919584871135

>  <r_i_glide_gscore>  (6) 
-6.15035288181157

>  <r_i_glide_lipo>  (6) 
-0.971136865588074

>  <r_i_glide_hbond>  (6) 
-0.455245257883132

>  <r_i_glide_metal>  (6) 
0

>  <r_i_glide_rewards>  (6) 
-2.30207387261846

>  <r_i_glide_evdw>  (6) 
-21.728199005127

>  <r_i_glide_ecoul>  (6) 
-13.0175352096558

>  <r_i_glide_erotb>  (6) 
0.66435799082599

>  <r_i_glide_esite>  (6) 
-0.0472146448431746

>  <r_i_glide_emodel>  (6) 
-53.1471675460494

>  <r_i_glide_energy>  (6) 
-34.7457342147827

>  <r_i_glide_einternal>  (6) 
1.70490884780884

>  <i_i_glide_confnum>  (6) 
6

>  <i_i_glide_posenum>  (6) 
70

>  <r_i_glide_eff_state_penalty>  (6) 
0.0002

>  <s_m_subgroup_title>  (6) 
0995dock_pv

>  <s_m_subgroupid>  (6) 
0995dock_pv

>  <b_m_subgroup_collapsed>  (6) 
0

>  <class>  (6) 
8

>  <isCentroid>  (6) 
flase

$$$$
ZINC000000538212
     RDKit          3D

 19 19  0  0  1  0  0  0  0  0999 V2000
    4.3128   12.5320  -21.4762 C   0  0  0  0  0  0  0  0  0  0  0  0
    4.3152   11.4173  -22.5341 C   0  0  2  0  0  0  0  0  0  0  0  0
    3.5601   10.2773  -22.0038 N   0  0  0  0  0  0  0  0  0  0  0  0
    3.2396    9.1511  -22.6611 C   0  0  0  0  0  0  0  0  0  0  0  0
    3.5873    8.9135  -23.8170 O   0  0  0  0  0  0  0  0  0  0  0  0
    2.5022    8.3338  -21.8895 N   0  0  0  0  0  0  0  0  0  0  0  0
    1.9337    7.0535  -22.1701 C   0  0  0  0  0  0  0  0  0  0  0  0
    2.0118    6.4283  -23.4416 C   0  0  0  0  0  0  0  0  0  0  0  0
    1.4606    5.1509  -23.6477 C   0  0  0  0  0  0  0  0  0  0  0  0
    0.8132    4.4826  -22.5969 C   0  0  0  0  0  0  0  0  0  0  0  0
    0.7201    5.0940  -21.3347 C   0  0  0  0  0  0  0  0  0  0  0  0
    1.2750    6.3746  -21.1076 C   0  0  0  0  0  0  0  0  0  0  0  0
    1.1979    6.9885  -19.7095 C   0  0  0  0  0  0  0  0  0  0  0  0
    2.4297    7.1411  -19.2210 F   0  0  0  0  0  0  0  0  0  0  0  0
    0.6051    8.1815  -19.7601 F   0  0  0  0  0  0  0  0  0  0  0  0
    0.5104    6.2206  -18.8632 F   0  0  0  0  0  0  0  0  0  0  0  0
    5.7688   11.0663  -22.8938 C   0  0  0  0  0  0  0  0  0  0  0  0
    6.3236   10.1758  -22.2171 O   0  0  0  0  0  0  0  0  0  0  0  0
    6.3233   11.7115  -23.8154 O   0  0  0  0  0  0  0  0  0  0  0  0
  2  1  1  1
  2  3  1  0
  2 17  1  0
  3  4  1  0
  4  5  2  0
  4  6  1  0
  6  7  1  0
  7  8  2  0
  7 12  1  0
  8  9  1  0
  9 10  2  0
 10 11  1  0
 11 12  2  0
 12 13  1  0
 13 14  1  0
 13 15  1  0
 13 16  1  0
 17 18  2  0
 17 19  1  0
M  CHG  1  19  -1
M  END
>  <s_m_entry_id>  (7) 
37

>  <s_m_entry_name>  (7) 
ZINC000000538212.1

>  <s_m_Source_Path>  (7) 
/home/bhw/schrodinger/schrodinger/0995dock

>  <s_m_Source_File>  (7) 
0995dock_pv.maegz

>  <i_m_Source_File_Index>  (7) 
37

>  <zinc_id>  (7) 
ZINC000000538212

>  <smiles>  (7) 
C[C@H](NC(=O)Nc1ccccc1C(F)(F)F)C(=O)O

>  <chiral flag>  (7) 
0

>  <version>  (7) 
0

>  <i_lp_mmshare_version>  (7) 
44012

>  <s_epik_input>  (7) 
Tz1DKFtPSF0pW0NASF0oW0NIM10pW05IXUMoPU8pW05IXWMxW2NIXVtjSF1bY0hdW2NIXWMxQyhGKShGKUY=

>  <s_epik_cmdline>  (7) 
J2VwaWtfcHl0aG9uJywgJy1waCcsICc3LjAnLCAnLXRuJywgJzgnLCAnLW1hJywgJzIwMCcsICctaW1hZScsICc8aW5maWxlLm1hZT4nLCAnLW9tYWUnLCAnPG91dGZpbGUubWFlPic=

>  <r_epik_Ionization_Penalty>  (7) 
0.0004

>  <r_epik_Ionization_Penalty_Charging>  (7) 
0.0003

>  <r_epik_Ionization_Penalty_Neutral>  (7) 
0.0000

>  <r_epik_State_Penalty>  (7) 
0.0002

>  <r_epik_Charging_Adjusted_Penalty>  (7) 
0.000558749691477377

>  <i_epik_Tot_Q>  (7) 
-1

>  <i_epik_Tot_abs_Q>  (7) 
1

>  <i_f3d_flags>  (7) 
0

>  <s_lp_Force_Field>  (7) 
OPLS_2005

>  <r_lp_Energy>  (7) 
10.944249

>  <b_lp_Chiralities_Consistent>  (7) 
1

>  <s_lp_Variant>  (7) 
ZINC000000538212-1

>  <s_m_job_name>  (7) 
zinc0995

>  <s_i_glide_gridfile>  (7) 
zincglide

>  <i_i_glide_lignum>  (7) 
667

>  <i_i_glide_rotatable_bonds>  (7) 
6

>  <r_i_docking_score>  (7) 
-6.25444543272166

>  <r_i_glide_ligand_efficiency>  (7) 
-0.329181338564298

>  <r_i_glide_ligand_efficiency_sa>  (7) 
-0.878388025691349

>  <r_i_glide_ligand_efficiency_ln>  (7) 
-1.58563625036567

>  <r_i_glide_gscore>  (7) 
-6.25464543272166

>  <r_i_glide_lipo>  (7) 
-0.897771833631294

>  <r_i_glide_hbond>  (7) 
-0.475294752442242

>  <r_i_glide_metal>  (7) 
0

>  <r_i_glide_rewards>  (7) 
-2.46901248382105

>  <r_i_glide_evdw>  (7) 
-21.2147769927979

>  <r_i_glide_ecoul>  (7) 
-13.1239242553711

>  <r_i_glide_erotb>  (7) 
0.66435799082599

>  <r_i_glide_esite>  (7) 
-0.0475968657075068

>  <r_i_glide_emodel>  (7) 
-52.636050691776

>  <r_i_glide_energy>  (7) 
-34.3387012481689

>  <r_i_glide_einternal>  (7) 
2.05181765556335

>  <i_i_glide_confnum>  (7) 
17

>  <i_i_glide_posenum>  (7) 
343

>  <r_i_glide_eff_state_penalty>  (7) 
0.0002

>  <s_m_subgroup_title>  (7) 
0995dock_pv

>  <s_m_subgroupid>  (7) 
0995dock_pv

>  <b_m_subgroup_collapsed>  (7) 
0

>  <class>  (7) 
8

>  <isCentroid>  (7) 
flase

$$$$
ZINC000001097904
     RDKit          3D

 18 18  0  0  1  0  0  0  0  0999 V2000
    6.0774   13.1573  -21.3947 C   0  0  0  0  0  0  0  0  0  0  0  0
    5.0999   12.1082  -21.8454 C   0  0  0  0  0  0  0  0  0  0  0  0
    3.8449   12.2229  -21.5475 N   0  0  0  0  0  0  0  0  0  0  0  0
    2.9714   11.2795  -21.9507 N   0  0  0  0  0  0  0  0  0  0  0  0
    3.3039   10.0939  -22.6171 C   0  0  0  0  0  0  0  0  0  0  0  0
    2.3414    9.2503  -22.8150 N   0  0  0  0  0  0  0  0  0  0  0  0
    2.7242    8.0359  -23.4531 N   0  0  0  0  0  0  0  0  0  0  0  0
    1.9032    7.1112  -23.1810 C   0  0  0  0  0  0  0  0  0  0  0  0
    2.0318    5.6945  -23.6969 C   0  0  0  0  0  0  0  0  0  0  0  0
    3.2615    5.2347  -23.4591 F   0  0  0  0  0  0  0  0  0  0  0  0
    1.8370    5.6918  -25.0156 F   0  0  0  0  0  0  0  0  0  0  0  0
    1.0145    4.7392  -23.0275 C   0  0  0  0  0  0  0  0  0  0  0  0
    1.1240    4.7765  -21.6983 F   0  0  0  0  0  0  0  0  0  0  0  0
   -0.2317    5.0926  -23.3434 F   0  0  0  0  0  0  0  0  0  0  0  0
    1.2116    3.4844  -23.4305 F   0  0  0  0  0  0  0  0  0  0  0  0
    4.6454    9.9644  -22.9967 N   0  0  0  0  0  0  0  0  0  0  0  0
    5.5466   10.9322  -22.6646 C   0  0  0  0  0  0  0  0  0  0  0  0
    6.7232   10.9135  -23.0188 O   0  0  0  0  0  0  0  0  0  0  0  0
  1  2  1  0
  2  3  2  0
  2 17  1  0
  3  4  1  0
  4  5  1  0
  5  6  2  0
  5 16  1  0
  6  7  1  0
  7  8  2  0
  8  9  1  0
  9 10  1  0
  9 11  1  0
  9 12  1  0
 12 13  1  0
 12 14  1  0
 12 15  1  0
 16 17  1  0
 17 18  2  0
M  CHG  1  16  -1
M  END
>  <s_m_entry_id>  (8) 
73

>  <s_m_entry_name>  (8) 
ZINC000001097904.1

>  <s_m_Source_Path>  (8) 
/home/bhw/schrodinger/schrodinger/0995dock

>  <s_m_Source_File>  (8) 
0995dock_pv.maegz

>  <i_m_Source_File_Index>  (8) 
73

>  <zinc_id>  (8) 
ZINC000001097904

>  <smiles>  (8) 
Cc1nnc(N/N=C/C(F)(F)C(F)(F)F)nc1O

>  <chiral flag>  (8) 
0

>  <version>  (8) 
0

>  <i_lp_mmshare_version>  (8) 
44012

>  <s_epik_input>  (8) 
W0NIM11jMW5uYyhuYzFbT0hdKVtOSF0vTj1bQ0hdL0MoRikoRilDKEYpKEYpRg==

>  <s_epik_cmdline>  (8) 
J2VwaWtfcHl0aG9uJywgJy1waCcsICc3LjAnLCAnLXRuJywgJzgnLCAnLW1hJywgJzIwMCcsICctaW1hZScsICc8aW5maWxlLm1hZT4nLCAnLW9tYWUnLCAnPG91dGZpbGUubWFlPic=

>  <r_epik_Ionization_Penalty>  (8) 
0.0279

>  <r_epik_Ionization_Penalty_Charging>  (8) 
0.0279

>  <r_epik_Ionization_Penalty_Neutral>  (8) 
0.0000

>  <r_epik_State_Penalty>  (8) 
0.1451

>  <r_epik_Charging_Adjusted_Penalty>  (8) 
0.173022187638839

>  <i_epik_Tot_Q>  (8) 
-1

>  <i_epik_Tot_abs_Q>  (8) 
1

>  <s_epik_Chemistry_Notes>  (8) 
This compound has an imine and may undergo hydrolysis.

>  <i_f3d_flags>  (8) 
0

>  <s_lp_Force_Field>  (8) 
OPLS_2005

>  <r_lp_Energy>  (8) 
15.850759

>  <b_lp_Chiralities_Consistent>  (8) 
1

>  <s_lp_Variant>  (8) 
ZINC000001097904-1

>  <s_m_job_name>  (8) 
zinc0995

>  <s_i_glide_gridfile>  (8) 
zincglide

>  <i_i_glide_lignum>  (8) 
1408

>  <i_i_glide_rotatable_bonds>  (8) 
3

>  <r_i_docking_score>  (8) 
-6.03889242114459

>  <r_i_glide_ligand_efficiency>  (8) 
-0.335494023396922

>  <r_i_glide_ligand_efficiency_sa>  (8) 
-0.879243073778887

>  <r_i_glide_ligand_efficiency_ln>  (8) 
-1.55226615782608

>  <r_i_glide_gscore>  (8) 
-6.18399242114459

>  <r_i_glide_lipo>  (8) 
-0.593662737417816

>  <r_i_glide_hbond>  (8) 
-0.235326111984322

>  <r_i_glide_metal>  (8) 
0

>  <r_i_glide_rewards>  (8) 
-2.78222091820801

>  <r_i_glide_evdw>  (8) 
-25.9414348602295

>  <r_i_glide_ecoul>  (8) 
-10.318470954895

>  <r_i_glide_erotb>  (8) 
0.343036673829762

>  <r_i_glide_esite>  (8) 
-0.0709769411184805

>  <r_i_glide_emodel>  (8) 
-52.1235322964971

>  <r_i_glide_energy>  (8) 
-36.2599058151245

>  <r_i_glide_einternal>  (8) 
0.479243963956833

>  <i_i_glide_confnum>  (8) 
1

>  <i_i_glide_posenum>  (8) 
252

>  <r_i_glide_eff_state_penalty>  (8) 
0.1451

>  <s_m_subgroup_title>  (8) 
0995dock_pv

>  <s_m_subgroupid>  (8) 
0995dock_pv

>  <b_m_subgroup_collapsed>  (8) 
0

>  <class>  (8) 
7

>  <isCentroid>  (8) 
flase

$$$$
ZINC000001601494
     RDKit          3D

 21 24  0  0  1  0  0  0  0  0999 V2000
    5.8939   10.5135  -21.8170 O   0  0  0  0  0  0  0  0  0  0  0  0
    4.9346   11.2598  -22.5394 C   0  0  0  0  0  0  0  0  0  0  0  0
    3.4911   10.8631  -22.1588 C   0  0  2  0  0  0  0  0  0  0  0  0
    2.9795    9.8330  -23.0096 O   0  0  0  0  0  0  0  0  0  0  0  0
    1.5966    9.9795  -23.2011 C   0  0  1  0  0  0  0  0  0  0  0  0
    0.8997    8.7375  -22.7236 N   0  0  0  0  0  0  0  0  0  0  0  0
   -0.2877    8.6427  -22.0606 C   0  0  0  0  0  0  0  0  0  0  0  0
   -0.7653    7.4216  -21.8170 N   0  0  0  0  0  0  0  0  0  0  0  0
    0.2262    6.6895  -22.4282 C   0  0  0  0  0  0  0  0  0  0  0  0
    0.3168    5.2589  -22.5961 C   0  0  0  0  0  0  0  0  0  0  0  0
   -0.6015    4.4892  -22.1079 N   0  0  0  0  0  0  0  0  0  0  0  0
   -0.0618    3.2613  -22.5346 C   0  0  0  0  0  0  0  0  0  0  0  0
    1.1254    3.4158  -23.2373 C   0  0  0  0  0  0  0  0  0  0  0  0
    1.3582    4.7796  -23.2660 N   0  0  0  0  0  0  0  0  0  0  0  0
    2.3693    5.5529  -23.8170 C   0  0  0  0  0  0  0  0  0  0  0  0
    2.3238    6.9078  -23.6872 N   0  0  0  0  0  0  0  0  0  0  0  0
    1.2485    7.4182  -22.9971 C   0  0  0  0  0  0  0  0  0  0  0  0
    1.1618   11.2150  -22.3941 C   0  0  2  0  0  0  0  0  0  0  0  0
    0.1241   11.9489  -23.0170 O   0  0  0  0  0  0  0  0  0  0  0  0
    2.4630   11.9972  -22.2812 C   0  0  2  0  0  0  0  0  0  0  0  0
    2.7237   12.8058  -23.4170 O   0  0  0  0  0  0  0  0  0  0  0  0
  1  2  1  0
  3  2  1  6
  3  4  1  0
  3 20  1  0
  4  5  1  0
  5  6  1  1
  5 18  1  0
  6  7  1  0
  6 17  1  0
  7  8  2  0
  8  9  1  0
  9 10  1  0
  9 17  2  0
 10 11  2  0
 10 14  1  0
 11 12  1  0
 12 13  2  0
 13 14  1  0
 14 15  1  0
 15 16  2  0
 16 17  1  0
 18 19  1  6
 18 20  1  0
 20 21  1  6
M  END
>  <s_m_entry_id>  (9) 
29

>  <s_m_entry_name>  (9) 
ZINC000001601494.1

>  <s_m_Source_Path>  (9) 
/home/bhw/schrodinger/schrodinger/0995dock

>  <s_m_Source_File>  (9) 
0995dock_pv.maegz

>  <i_m_Source_File_Index>  (9) 
29

>  <zinc_id>  (9) 
ZINC000001601494

>  <smiles>  (9) 
OC[C@@H]1O[C@@H](n2cnc3c2ncn2ccnc32)[C@H](O)[C@@H]1O

>  <chiral flag>  (9) 
0

>  <version>  (9) 
0

>  <i_lp_mmshare_version>  (9) 
44012

>  <s_epik_input>  (9) 
W09IXVtDSDJdW0NAQEhdMU9bQ0BIXShbQ0BIXShbT0hdKVtDQEBIXTFbT0hdKW4oW2NIXW4yKWMzbltjSF1uKGM0YzIzKVtjSF1bY0hdbjQ=

>  <s_epik_cmdline>  (9) 
J2VwaWtfcHl0aG9uJywgJy1waCcsICc3LjAnLCAnLXRuJywgJzgnLCAnLW1hJywgJzIwMCcsICctaW1hZScsICc8aW5maWxlLm1hZT4nLCAnLW9tYWUnLCAnPG91dGZpbGUubWFlPic=

>  <r_epik_Ionization_Penalty>  (9) 
0.0000

>  <r_epik_Ionization_Penalty_Charging>  (9) 
0.0000

>  <r_epik_Ionization_Penalty_Neutral>  (9) 
0.0000

>  <r_epik_State_Penalty>  (9) 
0.0000

>  <r_epik_Charging_Adjusted_Penalty>  (9) 
1.90310049707555e-06

>  <i_epik_Tot_Q>  (9) 
0

>  <i_epik_Tot_abs_Q>  (9) 
0

>  <s_epik_Chemistry_Notes>  (9) 
This compound contains an acetal/aminal-like group ( X-CH(R)-Y where X, Y are N, S, or O) that may be acid/base labile, releasing an aldehyde.

>  <i_f3d_flags>  (9) 
0

>  <s_lp_Force_Field>  (9) 
OPLS_2005

>  <r_lp_Energy>  (9) 
64.121695

>  <b_lp_Chiralities_Consistent>  (9) 
1

>  <s_lp_Variant>  (9) 
ZINC000001601494-1

>  <s_m_job_name>  (9) 
zinc0995

>  <s_i_glide_gridfile>  (9) 
zincglide

>  <i_i_glide_lignum>  (9) 
1894

>  <i_i_glide_rotatable_bonds>  (9) 
5

>  <r_i_docking_score>  (9) 
-6.32436243011678

>  <r_i_glide_ligand_efficiency>  (9) 
-0.301160115719847

>  <r_i_glide_ligand_efficiency_sa>  (9) 
-0.830877923378012

>  <r_i_glide_ligand_efficiency_ln>  (9) 
-1.56368583126878

>  <r_i_glide_gscore>  (9) 
-6.32436243011678

>  <r_i_glide_lipo>  (9) 
-0.536404270661497

>  <r_i_glide_hbond>  (9) 
0

>  <r_i_glide_metal>  (9) 
0

>  <r_i_glide_rewards>  (9) 
-2.35951449968796

>  <r_i_glide_evdw>  (9) 
-16.3771495819092

>  <r_i_glide_ecoul>  (9) 
-19.8140411376953

>  <r_i_glide_erotb>  (9) 
0.42997450912292

>  <r_i_glide_esite>  (9) 
-0.0674545191404846

>  <r_i_glide_emodel>  (9) 
-51.026535224219

>  <r_i_glide_energy>  (9) 
-36.1911907196045

>  <r_i_glide_einternal>  (9) 
3.50061702728271

>  <i_i_glide_confnum>  (9) 
6

>  <i_i_glide_posenum>  (9) 
75

>  <r_i_glide_eff_state_penalty>  (9) 
0

>  <r_lp_tautomer_probability>  (9) 
1

>  <s_m_subgroup_title>  (9) 
0995dock_pv

>  <s_m_subgroupid>  (9) 
0995dock_pv

>  <b_m_subgroup_collapsed>  (9) 
0

>  <class>  (9) 
1

>  <isCentroid>  (9) 
flase

$$$$
ZINC000001681752
     RDKit          3D

 14 14  0  0  1  0  0  0  0  0999 V2000
    6.3238   10.5135  -23.6825 O   0  0  0  0  0  0  0  0  0  0  0  0
    5.6841   11.3165  -22.9764 C   0  0  0  0  0  0  0  0  0  0  0  0
    5.9094   12.5467  -23.0169 O   0  0  0  0  0  0  0  0  0  0  0  0
    4.6673   10.7920  -21.9352 C   0  0  1  0  0  0  0  0  0  0  0  0
    3.6553   11.8938  -21.6113 C   0  0  0  0  0  0  0  0  0  0  0  0
    2.6079   12.2042  -22.5055 C   0  0  0  0  0  0  0  0  0  0  0  0
    1.7084   13.2474  -22.2167 C   0  0  0  0  0  0  0  0  0  0  0  0
    1.8482   13.9909  -21.0291 C   0  0  0  0  0  0  0  0  0  0  0  0
    2.8898   13.6868  -20.1299 C   0  0  0  0  0  0  0  0  0  0  0  0
    3.7893   12.6428  -20.4197 C   0  0  0  0  0  0  0  0  0  0  0  0
    3.8343    9.1552  -22.3388 S   0  0  0  0  0  0  0  0  0  0  0  0
    2.5261    9.2224  -21.6683 O   0  0  0  0  0  0  0  0  0  0  0  0
    3.7529    9.0747  -23.8068 O   0  0  0  0  0  0  0  0  0  0  0  0
    4.7241    8.1405  -21.7511 O   0  0  0  0  0  0  0  0  0  0  0  0
  1  2  2  0
  2  3  1  0
  4  2  1  6
  4  5  1  0
  4 11  1  0
  5  6  2  0
  5 10  1  0
  6  7  1  0
  7  8  2  0
  8  9  1  0
  9 10  2  0
 11 12  2  0
 11 13  2  0
 11 14  1  0
M  CHG  2   3  -1  14  -1
M  END
>  <s_m_entry_id>  (10) 
6

>  <s_m_entry_name>  (10) 
ZINC000001681752.1

>  <s_m_Source_Path>  (10) 
/home/bhw/schrodinger/schrodinger/0995dock

>  <s_m_Source_File>  (10) 
0995dock_pv.maegz

>  <i_m_Source_File_Index>  (10) 
6

>  <zinc_id>  (10) 
ZINC000001681752

>  <smiles>  (10) 
O=C(O)[C@@H](c1ccccc1)S(=O)(=O)O

>  <chiral flag>  (10) 
0

>  <version>  (10) 
0

>  <i_lp_mmshare_version>  (10) 
44012

>  <s_epik_input>  (10) 
Tz1DKFtPSF0pW0NASF0oUyg9TykoPU8pW09IXSljMVtjSF1bY0hdW2NIXVtjSF1bY0hdMQ==

>  <s_epik_cmdline>  (10) 
J2VwaWtfcHl0aG9uJywgJy1waCcsICc3LjAnLCAnLXRuJywgJzgnLCAnLW1hJywgJzIwMCcsICctaW1hZScsICc8aW5maWxlLm1hZT4nLCAnLW9tYWUnLCAnPG91dGZpbGUubWFlPic=

>  <r_epik_Ionization_Penalty>  (10) 
0.0003

>  <r_epik_Ionization_Penalty_Charging>  (10) 
0.0003

>  <r_epik_Ionization_Penalty_Neutral>  (10) 
0.0000

>  <r_epik_State_Penalty>  (10) 
0.0000

>  <r_epik_Charging_Adjusted_Penalty>  (10) 
0.00026164163225133

>  <i_epik_Tot_Q>  (10) 
-2

>  <i_epik_Tot_abs_Q>  (10) 
2

>  <i_f3d_flags>  (10) 
0

>  <s_lp_Force_Field>  (10) 
OPLS_2005

>  <r_lp_Energy>  (10) 
27.372743

>  <b_lp_Chiralities_Consistent>  (10) 
1

>  <s_lp_Variant>  (10) 
ZINC000001681752-1

>  <s_m_job_name>  (10) 
zinc0995

>  <s_i_glide_gridfile>  (10) 
zincglide

>  <i_i_glide_lignum>  (10) 
2058

>  <i_i_glide_rotatable_bonds>  (10) 
3

>  <r_i_docking_score>  (10) 
-6.62539229505868

>  <r_i_glide_ligand_efficiency>  (10) 
-0.473242306789906

>  <r_i_glide_ligand_efficiency_sa>  (10) 
-1.14058128378678

>  <r_i_glide_ligand_efficiency_ln>  (10) 
-1.8206342178619

>  <r_i_glide_gscore>  (10) 
-6.62539229505868

>  <r_i_glide_lipo>  (10) 
0

>  <r_i_glide_hbond>  (10) 
-0.39677959283039

>  <r_i_glide_metal>  (10) 
0

>  <r_i_glide_rewards>  (10) 
-2.92527146290793

>  <r_i_glide_evdw>  (10) 
-13.7092456817627

>  <r_i_glide_ecoul>  (10) 
-16.9846878051758

>  <r_i_glide_erotb>  (10) 
0

>  <r_i_glide_esite>  (10) 
-0.0701757844558664

>  <r_i_glide_emodel>  (10) 
-50.212987416882

>  <r_i_glide_energy>  (10) 
-30.6939334869385

>  <r_i_glide_einternal>  (10) 
1.41511952877045

>  <i_i_glide_confnum>  (10) 
1

>  <i_i_glide_posenum>  (10) 
67

>  <r_i_glide_eff_state_penalty>  (10) 
0

>  <r_lp_tautomer_probability>  (10) 
1

>  <s_m_subgroup_title>  (10) 
0995dock_pv

>  <s_m_subgroupid>  (10) 
0995dock_pv

>  <b_m_subgroup_collapsed>  (10) 
0

>  <class>  (10) 
5

>  <isCentroid>  (10) 
flase

$$$$
ZINC000002383802
     RDKit          3D

 22 22  0  0  1  0  0  0  0  0999 V2000
    6.3235   10.3461  -23.4147 O   0  0  0  0  0  0  0  0  0  0  0  0
    5.7107   11.3547  -23.0133 C   0  0  0  0  0  0  0  0  0  0  0  0
    5.9237   12.5135  -23.4162 O   0  0  0  0  0  0  0  0  0  0  0  0
    4.5752   11.1299  -21.9630 C   0  0  0  0  0  0  0  0  0  0  0  0
    4.0202    9.9567  -22.0192 N   0  0  0  0  0  0  0  0  0  0  0  0
    3.0426    9.5780  -21.2053 N   0  0  0  0  0  0  0  0  0  0  0  0
    2.3471    8.3730  -21.3421 C   0  0  0  0  0  0  0  0  0  0  0  0
    1.4675    7.9628  -20.3214 C   0  0  0  0  0  0  0  0  0  0  0  0
    0.7600    6.7511  -20.4411 C   0  0  0  0  0  0  0  0  0  0  0  0
    0.9238    5.9474  -21.5858 C   0  0  0  0  0  0  0  0  0  0  0  0
    1.7951    6.3553  -22.6188 C   0  0  0  0  0  0  0  0  0  0  0  0
    2.0059    5.5041  -23.8577 C   0  0  0  0  0  0  0  0  0  0  0  0
    1.9232    6.2718  -24.9443 F   0  0  0  0  0  0  0  0  0  0  0  0
    3.2189    4.9590  -23.8169 F   0  0  0  0  0  0  0  0  0  0  0  0
    1.1019    4.5282  -23.9434 F   0  0  0  0  0  0  0  0  0  0  0  0
    2.5044    7.5650  -22.4894 C   0  0  0  0  0  0  0  0  0  0  0  0
    4.2032   12.2324  -21.0020 C   0  0  0  0  0  0  0  0  0  0  0  0
    3.1738   12.1593  -20.3202 O   0  0  0  0  0  0  0  0  0  0  0  0
    5.0882   13.4838  -20.8144 C   0  0  0  0  0  0  0  0  0  0  0  0
    4.8988   14.3545  -21.8072 F   0  0  0  0  0  0  0  0  0  0  0  0
    4.7475   14.1010  -19.6831 F   0  0  0  0  0  0  0  0  0  0  0  0
    6.3804   13.1611  -20.7202 F   0  0  0  0  0  0  0  0  0  0  0  0
  1  2  2  0
  2  3  1  0
  2  4  1  0
  4  5  2  0
  4 17  1  0
  5  6  1  0
  6  7  1  0
  7  8  2  0
  7 16  1  0
  8  9  1  0
  9 10  2  0
 10 11  1  0
 11 12  1  0
 11 16  2  0
 12 13  1  0
 12 14  1  0
 12 15  1  0
 17 18  2  0
 17 19  1  0
 19 20  1  0
 19 21  1  0
 19 22  1  0
M  CHG  1   3  -1
M  END
>  <s_m_entry_id>  (11) 
79

>  <s_m_entry_name>  (11) 
ZINC000002383802.1

>  <s_m_Source_Path>  (11) 
/home/bhw/schrodinger/schrodinger/0995dock

>  <s_m_Source_File>  (11) 
0995dock_pv.maegz

>  <i_m_Source_File_Index>  (11) 
79

>  <zinc_id>  (11) 
ZINC000002383802

>  <smiles>  (11) 
O=C(O)/C(=N/Nc1cccc(C(F)(F)F)c1)C(=O)C(F)(F)F

>  <chiral flag>  (11) 
0

>  <version>  (11) 
0

>  <i_lp_mmshare_version>  (11) 
44012

>  <s_epik_input>  (11) 
RkMoRikoRilDKD1PKUMoXEMoPU8pW09IXSk9Ti9bTkhdYzFbY0hdW2NIXVtjSF1jKEMoRikoRilGKVtjSF0x

>  <s_epik_cmdline>  (11) 
J2VwaWtfcHl0aG9uJywgJy1waCcsICc3LjAnLCAnLXRuJywgJzgnLCAnLW1hJywgJzIwMCcsICctaW1hZScsICc8aW5maWxlLm1hZT4nLCAnLW9tYWUnLCAnPG91dGZpbGUubWFlPic=

>  <r_epik_Ionization_Penalty>  (11) 
0.0000

>  <r_epik_Ionization_Penalty_Charging>  (11) 
0.0000

>  <r_epik_Ionization_Penalty_Neutral>  (11) 
0.0000

>  <r_epik_State_Penalty>  (11) 
0.0000

>  <r_epik_Charging_Adjusted_Penalty>  (11) 
8.06346847569089e-08

>  <i_epik_Tot_Q>  (11) 
-1

>  <i_epik_Tot_abs_Q>  (11) 
1

>  <s_epik_Chemistry_Notes>  (11) 
This compound has an imine and may undergo hydrolysis.

>  <i_f3d_flags>  (11) 
0

>  <s_lp_Force_Field>  (11) 
OPLS_2005

>  <r_lp_Energy>  (11) 
32.180359

>  <b_lp_Chiralities_Consistent>  (11) 
1

>  <s_lp_Variant>  (11) 
ZINC000002383802-1

>  <s_m_job_name>  (11) 
zinc0995

>  <s_i_glide_gridfile>  (11) 
zincglide

>  <i_i_glide_lignum>  (11) 
2558

>  <i_i_glide_rotatable_bonds>  (11) 
6

>  <r_i_docking_score>  (11) 
-6.00042457448945

>  <r_i_glide_ligand_efficiency>  (11) 
-0.272746571567702

>  <r_i_glide_ligand_efficiency_sa>  (11) 
-0.764246620046676

>  <r_i_glide_ligand_efficiency_ln>  (11) 
-1.46672263680953

>  <r_i_glide_gscore>  (11) 
-6.00042457448945

>  <r_i_glide_lipo>  (11) 
-0.536431728008436

>  <r_i_glide_hbond>  (11) 
-0.21204616822033

>  <r_i_glide_metal>  (11) 
0

>  <r_i_glide_rewards>  (11) 
-2.96879817746305

>  <r_i_glide_evdw>  (11) 
-23.8979568481445

>  <r_i_glide_ecoul>  (11) 
-9.08130836486816

>  <r_i_glide_erotb>  (11) 
0.49087928195249

>  <r_i_glide_esite>  (11) 
-0.216933685612675

>  <r_i_glide_emodel>  (11) 
-49.993718187354

>  <r_i_glide_energy>  (11) 
-32.9792652130127

>  <r_i_glide_einternal>  (11) 
1.581662774086

>  <i_i_glide_confnum>  (11) 
8

>  <i_i_glide_posenum>  (11) 
328

>  <r_i_glide_eff_state_penalty>  (11) 
0

>  <r_lp_tautomer_probability>  (11) 
1

>  <s_m_subgroup_title>  (11) 
0995dock_pv

>  <s_m_subgroupid>  (11) 
0995dock_pv

>  <b_m_subgroup_collapsed>  (11) 
0

>  <class>  (11) 
8

>  <isCentroid>  (11) 
flase

$$$$
ZINC000002526138
     RDKit          3D

 17 17  0  0  1  0  0  0  0  0999 V2000
    3.4575   12.2691  -20.6921 C   0  0  0  0  0  0  0  0  0  0  0  0
    3.1997   11.5096  -22.0037 C   0  0  0  0  0  0  0  0  0  0  0  0
    4.3522   10.5553  -22.4135 C   0  0  1  0  0  0  0  0  0  0  0  0
    3.9139    9.6402  -23.4169 O   0  0  0  0  0  0  0  0  0  0  0  0
    3.1234    8.5597  -23.0905 C   0  0  0  0  0  0  0  0  0  0  0  0
    2.7198    7.7336  -24.1593 C   0  0  0  0  0  0  0  0  0  0  0  0
    1.9258    6.5952  -23.9285 C   0  0  0  0  0  0  0  0  0  0  0  0
    1.5235    6.2733  -22.6193 C   0  0  0  0  0  0  0  0  0  0  0  0
    1.9231    7.0848  -21.5352 C   0  0  0  0  0  0  0  0  0  0  0  0
    1.5213    6.7363  -20.1093 C   0  0  0  0  0  0  0  0  0  0  0  0
    0.5228    7.5301  -19.7252 F   0  0  0  0  0  0  0  0  0  0  0  0
    1.1260    5.4668  -20.0098 F   0  0  0  0  0  0  0  0  0  0  0  0
    2.5553    6.9139  -19.2851 F   0  0  0  0  0  0  0  0  0  0  0  0
    2.7190    8.2247  -21.7753 C   0  0  0  0  0  0  0  0  0  0  0  0
    5.5750   11.2966  -22.9835 C   0  0  0  0  0  0  0  0  0  0  0  0
    6.5018   10.5795  -23.4172 O   0  0  0  0  0  0  0  0  0  0  0  0
    5.5936   12.5467  -23.0170 O   0  0  0  0  0  0  0  0  0  0  0  0
  1  2  1  0
  3  2  1  6
  3  4  1  0
  3 15  1  0
  4  5  1  0
  5  6  2  0
  5 14  1  0
  6  7  1  0
  7  8  2  0
  8  9  1  0
  9 10  1  0
  9 14  2  0
 10 11  1  0
 10 12  1  0
 10 13  1  0
 15 16  2  0
 15 17  1  0
M  CHG  1  17  -1
M  END
>  <s_m_entry_id>  (12) 
41

>  <s_m_entry_name>  (12) 
ZINC000002526138.1

>  <s_m_Source_Path>  (12) 
/home/bhw/schrodinger/schrodinger/0995dock

>  <s_m_Source_File>  (12) 
0995dock_pv.maegz

>  <i_m_Source_File_Index>  (12) 
41

>  <zinc_id>  (12) 
ZINC000002526138

>  <smiles>  (12) 
CC[C@@H](Oc1cccc(C(F)(F)F)c1)C(=O)O

>  <chiral flag>  (12) 
0

>  <version>  (12) 
0

>  <i_lp_mmshare_version>  (12) 
44012

>  <s_epik_input>  (12) 
W0NIM11bQ0gyXVtDQEhdKEMoPU8pW09IXSlPYzFbY0hdW2NIXVtjSF1jKEMoRikoRilGKVtjSF0x

>  <s_epik_cmdline>  (12) 
J2VwaWtfcHl0aG9uJywgJy1waCcsICc3LjAnLCAnLXRuJywgJzgnLCAnLW1hJywgJzIwMCcsICctaW1hZScsICc8aW5maWxlLm1hZT4nLCAnLW9tYWUnLCAnPG91dGZpbGUubWFlPic=

>  <r_epik_Ionization_Penalty>  (12) 
0.0001

>  <r_epik_Ionization_Penalty_Charging>  (12) 
0.0001

>  <r_epik_Ionization_Penalty_Neutral>  (12) 
0.0000

>  <r_epik_State_Penalty>  (12) 
0.0000

>  <r_epik_Charging_Adjusted_Penalty>  (12) 
7.51364001951935e-05

>  <i_epik_Tot_Q>  (12) 
-1

>  <i_epik_Tot_abs_Q>  (12) 
1

>  <i_f3d_flags>  (12) 
0

>  <s_lp_Force_Field>  (12) 
OPLS_2005

>  <r_lp_Energy>  (12) 
13.175495

>  <b_lp_Chiralities_Consistent>  (12) 
1

>  <s_lp_Variant>  (12) 
ZINC000002526138-1

>  <s_m_job_name>  (12) 
zinc0995

>  <s_i_glide_gridfile>  (12) 
zincglide

>  <i_i_glide_lignum>  (12) 
2739

>  <i_i_glide_rotatable_bonds>  (12) 
5

>  <r_i_docking_score>  (12) 
-6.21585416769606

>  <r_i_glide_ligand_efficiency>  (12) 
-0.36563848045271

>  <r_i_glide_ligand_efficiency_sa>  (12) 
-0.940159492736413

>  <r_i_glide_ligand_efficiency_ln>  (12) 
-1.6215779320852

>  <r_i_glide_gscore>  (12) 
-6.21585416769606

>  <r_i_glide_lipo>  (12) 
-0.615381392644707

>  <r_i_glide_hbond>  (12) 
-0.258529336467578

>  <r_i_glide_metal>  (12) 
0

>  <r_i_glide_rewards>  (12) 
-3.46472638486644

>  <r_i_glide_evdw>  (12) 
-19.4206771850586

>  <r_i_glide_ecoul>  (12) 
-8.70564460754395

>  <r_i_glide_erotb>  (12) 
0.399663496667186

>  <r_i_glide_esite>  (12) 
0

>  <r_i_glide_emodel>  (12) 
-44.1862595180517

>  <r_i_glide_energy>  (12) 
-28.1263217926025

>  <r_i_glide_einternal>  (12) 
0.480847477912903

>  <i_i_glide_confnum>  (12) 
2

>  <i_i_glide_posenum>  (12) 
321

>  <r_i_glide_eff_state_penalty>  (12) 
0

>  <r_lp_tautomer_probability>  (12) 
1

>  <s_m_subgroup_title>  (12) 
0995dock_pv

>  <s_m_subgroupid>  (12) 
0995dock_pv

>  <b_m_subgroup_collapsed>  (12) 
0

>  <class>  (12) 
3

>  <isCentroid>  (12) 
flase

$$$$
ZINC000002526580
     RDKit          3D

 20 21  0  0  1  0  0  0  0  0999 V2000
   -1.3002   10.3045  -21.0955 C   0  0  0  0  0  0  0  0  0  0  0  0
    0.0920   10.0246  -21.6213 C   0  0  0  0  0  0  0  0  0  0  0  0
    0.4238    8.7272  -22.0786 C   0  0  0  0  0  0  0  0  0  0  0  0
    1.6948    8.5085  -22.5758 C   0  0  0  0  0  0  0  0  0  0  0  0
    2.1833    7.1657  -23.1348 C   0  0  0  0  0  0  0  0  0  0  0  0
    2.3194    7.2819  -24.4570 F   0  0  0  0  0  0  0  0  0  0  0  0
    3.3781    6.8876  -22.6157 F   0  0  0  0  0  0  0  0  0  0  0  0
    1.2899    5.9396  -22.8372 C   0  0  0  0  0  0  0  0  0  0  0  0
    1.8712    4.8386  -23.3172 F   0  0  0  0  0  0  0  0  0  0  0  0
    1.1252    5.7885  -21.5220 F   0  0  0  0  0  0  0  0  0  0  0  0
    0.0900    6.0534  -23.4006 F   0  0  0  0  0  0  0  0  0  0  0  0
    2.5568    9.5736  -22.5852 N   0  0  0  0  0  0  0  0  0  0  0  0
    3.8608    9.5836  -23.0159 N   0  0  0  0  0  0  0  0  0  0  0  0
    4.2724   10.8176  -22.8024 C   0  0  0  0  0  0  0  0  0  0  0  0
    5.6336   11.3068  -23.1450 C   0  0  0  0  0  0  0  0  0  0  0  0
    6.4720   10.5136  -23.6167 O   0  0  0  0  0  0  0  0  0  0  0  0
    5.9215   12.5135  -22.9992 O   0  0  0  0  0  0  0  0  0  0  0  0
    3.2648   11.6372  -22.2353 C   0  0  0  0  0  0  0  0  0  0  0  0
    2.1647   10.8414  -22.0992 C   0  0  0  0  0  0  0  0  0  0  0  0
    0.9305   11.0541  -21.6139 N   0  0  0  0  0  0  0  0  0  0  0  0
  1  2  1  0
  2  3  1  0
  2 20  2  0
  3  4  2  0
  4  5  1  0
  4 12  1  0
  5  6  1  0
  5  7  1  0
  5  8  1  0
  8  9  1  0
  8 10  1  0
  8 11  1  0
 12 13  1  0
 12 19  1  0
 13 14  2  0
 14 15  1  0
 14 18  1  0
 15 16  2  0
 15 17  1  0
 18 19  2  0
 19 20  1  0
M  CHG  1  17  -1
M  END
>  <s_m_entry_id>  (13) 
100

>  <s_m_entry_name>  (13) 
ZINC000002526580.1

>  <s_m_Source_Path>  (13) 
/home/bhw/schrodinger/schrodinger/0995dock

>  <s_m_Source_File>  (13) 
0995dock_pv.maegz

>  <i_m_Source_File_Index>  (13) 
100

>  <zinc_id>  (13) 
ZINC000002526580

>  <smiles>  (13) 
Cc1cc(C(F)(F)C(F)(F)F)n2nc(C(=O)O)cc2n1

>  <chiral flag>  (13) 
0

>  <version>  (13) 
0

>  <i_lp_mmshare_version>  (13) 
44012

>  <s_epik_input>  (13) 
RkMoRikoRilDKEYpKEYpYzFbY0hdYyhbQ0gzXSluYyhuMTIpW2NIXWMobjIpQyg9TylbT0hd

>  <s_epik_cmdline>  (13) 
J2VwaWtfcHl0aG9uJywgJy1waCcsICc3LjAnLCAnLXRuJywgJzgnLCAnLW1hJywgJzIwMCcsICctaW1hZScsICc8aW5maWxlLm1hZT4nLCAnLW9tYWUnLCAnPG91dGZpbGUubWFlPic=

>  <r_epik_Ionization_Penalty>  (13) 
0.0000

>  <r_epik_Ionization_Penalty_Charging>  (13) 
0.0000

>  <r_epik_Ionization_Penalty_Neutral>  (13) 
0.0000

>  <r_epik_State_Penalty>  (13) 
0.0000

>  <r_epik_Charging_Adjusted_Penalty>  (13) 
3.70830073169512e-05

>  <i_epik_Tot_Q>  (13) 
-1

>  <i_epik_Tot_abs_Q>  (13) 
1

>  <i_f3d_flags>  (13) 
0

>  <s_lp_Force_Field>  (13) 
OPLS_2005

>  <r_lp_Energy>  (13) 
6.176796

>  <b_lp_Chiralities_Consistent>  (13) 
1

>  <s_lp_Variant>  (13) 
ZINC000002526580-1

>  <s_m_job_name>  (13) 
zinc0995

>  <s_i_glide_gridfile>  (13) 
zincglide

>  <i_i_glide_lignum>  (13) 
2763

>  <i_i_glide_rotatable_bonds>  (13) 
3

>  <r_i_docking_score>  (13) 
-5.9305827310595

>  <r_i_glide_ligand_efficiency>  (13) 
-0.296529136552975

>  <r_i_glide_ligand_efficiency_sa>  (13) 
-0.804903911289313

>  <r_i_glide_ligand_efficiency_ln>  (13) 
-1.48422925387455

>  <r_i_glide_gscore>  (13) 
-5.9305827310595

>  <r_i_glide_lipo>  (13) 
-0.251494781795781

>  <r_i_glide_hbond>  (13) 
-0.281495635533685

>  <r_i_glide_metal>  (13) 
0

>  <r_i_glide_rewards>  (13) 
-3.22293401265744

>  <r_i_glide_evdw>  (13) 
-17.4763145446777

>  <r_i_glide_ecoul>  (13) 
-9.21839427947998

>  <r_i_glide_erotb>  (13) 
0.147915643523511

>  <r_i_glide_esite>  (13) 
-0.0659990754402226

>  <r_i_glide_emodel>  (13) 
-41.6030530608589

>  <r_i_glide_energy>  (13) 
-26.6947088241577

>  <r_i_glide_einternal>  (13) 
0.430890619754791

>  <i_i_glide_confnum>  (13) 
3

>  <i_i_glide_posenum>  (13) 
375

>  <r_i_glide_eff_state_penalty>  (13) 
0

>  <r_lp_tautomer_probability>  (13) 
1

>  <s_m_subgroup_title>  (13) 
0995dock_pv

>  <s_m_subgroupid>  (13) 
0995dock_pv

>  <b_m_subgroup_collapsed>  (13) 
0

>  <class>  (13) 
7

>  <isCentroid>  (13) 
flase

$$$$
ZINC000002537834
     RDKit          3D

 17 17  0  0  1  0  0  0  0  0999 V2000
    5.4990   12.5585  -23.0151 O   0  0  0  0  0  0  0  0  0  0  0  0
    5.8291   11.3560  -23.0724 C   0  0  0  0  0  0  0  0  0  0  0  0
    6.7236   10.9133  -23.8171 O   0  0  0  0  0  0  0  0  0  0  0  0
    5.0945   10.3479  -22.1979 C   0  0  0  0  0  0  0  0  0  0  0  0
    3.5744   10.4555  -22.4060 C   0  0  0  0  0  0  0  0  0  0  0  0
    2.9356    9.1708  -22.2273 N   0  0  0  0  0  0  0  0  0  0  0  0
    2.3082    8.6641  -21.1122 C   0  0  0  0  0  0  0  0  0  0  0  0
    1.8909    7.4128  -21.4595 C   0  0  0  0  0  0  0  0  0  0  0  0
    1.1962    6.4776  -20.5640 N   0  0  0  0  0  0  0  0  0  0  0  0
    0.7517    6.9298  -19.5152 O   0  0  0  0  0  0  0  0  0  0  0  0
    1.1222    5.2996  -20.8860 O   0  0  0  0  0  0  0  0  0  0  0  0
    2.2692    7.2244  -22.8256 C   0  0  0  0  0  0  0  0  0  0  0  0
    2.0604    6.0749  -23.7878 C   0  0  0  0  0  0  0  0  0  0  0  0
    3.1226    5.2723  -23.7879 F   0  0  0  0  0  0  0  0  0  0  0  0
    0.9738    5.3636  -23.5021 F   0  0  0  0  0  0  0  0  0  0  0  0
    1.9148    6.5585  -25.0173 F   0  0  0  0  0  0  0  0  0  0  0  0
    2.9387    8.2912  -23.2544 N   0  0  0  0  0  0  0  0  0  0  0  0
  1  2  2  0
  2  3  1  0
  2  4  1  0
  4  5  1  0
  5  6  1  0
  6  7  1  0
  6 17  1  0
  7  8  2  0
  8  9  1  0
  8 12  1  0
  9 10  2  0
  9 11  1  0
 12 13  1  0
 12 17  2  0
 13 14  1  0
 13 15  1  0
 13 16  1  0
M  CHG  3   3  -1   9   1  11  -1
M  END
>  <s_m_entry_id>  (14) 
7

>  <s_m_entry_name>  (14) 
ZINC000002537834.1

>  <s_m_Source_Path>  (14) 
/home/bhw/schrodinger/schrodinger/0995dock

>  <s_m_Source_File>  (14) 
0995dock_pv.maegz

>  <i_m_Source_File_Index>  (14) 
7

>  <zinc_id>  (14) 
ZINC000002537834

>  <smiles>  (14) 
O=C(O)CCn1cc([N+](=O)[O-])c(C(F)(F)F)n1

>  <chiral flag>  (14) 
0

>  <version>  (14) 
0

>  <i_lp_mmshare_version>  (14) 
44012

>  <s_epik_input>  (14) 
Tz1DKFtPSF0pW0NIMl1bQ0gyXW4xW2NIXWMoW04rXSg9TylbTy1dKWMobjEpQyhGKShGKUY=

>  <s_epik_cmdline>  (14) 
J2VwaWtfcHl0aG9uJywgJy1waCcsICc3LjAnLCAnLXRuJywgJzgnLCAnLW1hJywgJzIwMCcsICctaW1hZScsICc8aW5maWxlLm1hZT4nLCAnLW9tYWUnLCAnPG91dGZpbGUubWFlPic=

>  <r_epik_Ionization_Penalty>  (14) 
0.0010

>  <r_epik_Ionization_Penalty_Charging>  (14) 
0.0010

>  <r_epik_Ionization_Penalty_Neutral>  (14) 
0.0000

>  <r_epik_State_Penalty>  (14) 
0.0006

>  <r_epik_Charging_Adjusted_Penalty>  (14) 
0.00164397296983285

>  <i_epik_Tot_Q>  (14) 
-1

>  <i_epik_Tot_abs_Q>  (14) 
3

>  <i_f3d_flags>  (14) 
0

>  <s_lp_Force_Field>  (14) 
OPLS_2005

>  <r_lp_Energy>  (14) 
6.677547

>  <b_lp_Chiralities_Consistent>  (14) 
1

>  <s_lp_Variant>  (14) 
ZINC000002537834-1

>  <s_m_job_name>  (14) 
zinc0995

>  <s_i_glide_gridfile>  (14) 
zincglide

>  <i_i_glide_lignum>  (14) 
2851

>  <i_i_glide_rotatable_bonds>  (14) 
5

>  <r_i_docking_score>  (14) 
-6.61653089042711

>  <r_i_glide_ligand_efficiency>  (14) 
-0.389207699436889

>  <r_i_glide_ligand_efficiency_sa>  (14) 
-1.00076259155939

>  <r_i_glide_ligand_efficiency_ln>  (14) 
-1.72610556641381

>  <r_i_glide_gscore>  (14) 
-6.61713089042711

>  <r_i_glide_lipo>  (14) 
-0.513330866587805

>  <r_i_glide_hbond>  (14) 
-0.302399946798371

>  <r_i_glide_metal>  (14) 
0

>  <r_i_glide_rewards>  (14) 
-4.0642711812563

>  <r_i_glide_evdw>  (14) 
-20.1352825164795

>  <r_i_glide_ecoul>  (14) 
-7.31671762466431

>  <r_i_glide_erotb>  (14) 
0.386343787015346

>  <r_i_glide_esite>  (14) 
-0.0192009132763681

>  <r_i_glide_emodel>  (14) 
-44.5489652778382

>  <r_i_glide_energy>  (14) 
-27.4520001411438

>  <r_i_glide_einternal>  (14) 
2.45392274856567

>  <i_i_glide_confnum>  (14) 
4

>  <i_i_glide_posenum>  (14) 
315

>  <r_i_glide_eff_state_penalty>  (14) 
0.0006

>  <r_lp_tautomer_probability>  (14) 
1

>  <s_m_subgroup_title>  (14) 
0995dock_pv

>  <s_m_subgroupid>  (14) 
0995dock_pv

>  <b_m_subgroup_collapsed>  (14) 
0

>  <class>  (14) 
9

>  <isCentroid>  (14) 
true

$$$$
ZINC000002537836
     RDKit          3D

 15 15  0  0  1  0  0  0  0  0999 V2000
    5.7431   12.9145  -20.3692 C   0  0  0  0  0  0  0  0  0  0  0  0
    4.5052   12.1116  -20.8199 C   0  0  0  0  0  0  0  0  0  0  0  0
    4.7966   10.9355  -21.7966 C   0  0  2  0  0  0  0  0  0  0  0  0
    5.6131   11.3708  -23.0174 C   0  0  0  0  0  0  0  0  0  0  0  0
    6.3337   10.5134  -23.5660 O   0  0  0  0  0  0  0  0  0  0  0  0
    5.5240   12.5495  -23.4163 O   0  0  0  0  0  0  0  0  0  0  0  0
    3.5867   10.2524  -22.2453 N   0  0  0  0  0  0  0  0  0  0  0  0
    2.3335   10.7769  -22.4960 C   0  0  0  0  0  0  0  0  0  0  0  0
    1.5653    9.7784  -23.0180 C   0  0  0  0  0  0  0  0  0  0  0  0
    2.4496    8.6681  -23.1035 C   0  0  0  0  0  0  0  0  0  0  0  0
    2.1834    7.3277  -23.7355 C   0  0  0  0  0  0  0  0  0  0  0  0
    2.7141    7.3109  -24.9577 F   0  0  0  0  0  0  0  0  0  0  0  0
    2.7238    6.3447  -23.0194 F   0  0  0  0  0  0  0  0  0  0  0  0
    0.8714    7.1147  -23.8318 F   0  0  0  0  0  0  0  0  0  0  0  0
    3.6497    8.9491  -22.6108 N   0  0  0  0  0  0  0  0  0  0  0  0
  1  2  1  0
  3  2  1  6
  3  4  1  0
  3  7  1  0
  4  5  2  0
  4  6  1  0
  7  8  1  0
  7 15  1  0
  8  9  2  0
  9 10  1  0
 10 11  1  0
 10 15  2  0
 11 12  1  0
 11 13  1  0
 11 14  1  0
M  CHG  1   6  -1
M  END
>  <s_m_entry_id>  (15) 
96

>  <s_m_entry_name>  (15) 
ZINC000002537836.1

>  <s_m_Source_Path>  (15) 
/home/bhw/schrodinger/schrodinger/0995dock

>  <s_m_Source_File>  (15) 
0995dock_pv.maegz

>  <i_m_Source_File_Index>  (15) 
96

>  <zinc_id>  (15) 
ZINC000002537836

>  <smiles>  (15) 
CC[C@H](C(=O)O)n1ccc(C(F)(F)F)n1

>  <chiral flag>  (15) 
0

>  <version>  (15) 
0

>  <i_lp_mmshare_version>  (15) 
44012

>  <s_epik_input>  (15) 
W0NIM11bQ0gyXVtDQEhdKEMoPU8pW09IXSluMVtjSF1bY0hdYyhuMSlDKEYpKEYpRg==

>  <s_epik_cmdline>  (15) 
J2VwaWtfcHl0aG9uJywgJy1waCcsICc3LjAnLCAnLXRuJywgJzgnLCAnLW1hJywgJzIwMCcsICctaW1hZScsICc8aW5maWxlLm1hZT4nLCAnLW9tYWUnLCAnPG91dGZpbGUubWFlPic=

>  <r_epik_Ionization_Penalty>  (15) 
0.0001

>  <r_epik_Ionization_Penalty_Charging>  (15) 
0.0001

>  <r_epik_Ionization_Penalty_Neutral>  (15) 
0.0000

>  <r_epik_State_Penalty>  (15) 
0.0000

>  <r_epik_Charging_Adjusted_Penalty>  (15) 
0.000129906328969719

>  <i_epik_Tot_Q>  (15) 
-1

>  <i_epik_Tot_abs_Q>  (15) 
1

>  <i_f3d_flags>  (15) 
0

>  <s_lp_Force_Field>  (15) 
OPLS_2005

>  <r_lp_Energy>  (15) 
11.487226

>  <b_lp_Chiralities_Consistent>  (15) 
1

>  <s_lp_Variant>  (15) 
ZINC000002537836-1

>  <s_m_job_name>  (15) 
zinc0995

>  <s_i_glide_gridfile>  (15) 
zincglide

>  <i_i_glide_lignum>  (15) 
2853

>  <i_i_glide_rotatable_bonds>  (15) 
4

>  <r_i_docking_score>  (15) 
-5.9419052215197

>  <r_i_glide_ligand_efficiency>  (15) 
-0.39612701476798

>  <r_i_glide_ligand_efficiency_sa>  (15) 
-0.976933225907415

>  <r_i_glide_ligand_efficiency_ln>  (15) 
-1.60243386665949

>  <r_i_glide_gscore>  (15) 
-5.9419052215197

>  <r_i_glide_lipo>  (15) 
-0.151701660291073

>  <r_i_glide_hbond>  (15) 
-0.219881088707302

>  <r_i_glide_metal>  (15) 
0

>  <r_i_glide_rewards>  (15) 
-3.35866110245761

>  <r_i_glide_evdw>  (15) 
-18.2515907287598

>  <r_i_glide_ecoul>  (15) 
-10.0856075286865

>  <r_i_glide_erotb>  (15) 
0.241461338485121

>  <r_i_glide_esite>  (15) 
-0.0277020428078609

>  <r_i_glide_emodel>  (15) 
-43.0098456134703

>  <r_i_glide_energy>  (15) 
-28.3371982574463

>  <r_i_glide_einternal>  (15) 
2.1007354259491

>  <i_i_glide_confnum>  (15) 
2

>  <i_i_glide_posenum>  (15) 
367

>  <r_i_glide_eff_state_penalty>  (15) 
0

>  <r_lp_tautomer_probability>  (15) 
1

>  <s_m_subgroup_title>  (15) 
0995dock_pv

>  <s_m_subgroupid>  (15) 
0995dock_pv

>  <b_m_subgroup_collapsed>  (15) 
0

>  <class>  (15) 
10

>  <isCentroid>  (15) 
flase

$$$$
ZINC000002547620
     RDKit          3D

 15 16  0  0  1  0  0  0  0  0999 V2000
    3.5236   -4.0195  -15.0167 O   0  0  0  0  0  0  0  0  0  0  0  0
    3.4814   -2.7920  -14.9968 C   0  0  0  0  0  0  0  0  0  0  0  0
    3.1217   -2.0268  -13.9502 N   0  0  0  0  0  0  0  0  0  0  0  0
    3.0855   -0.6874  -14.3411 C   0  0  0  0  0  0  0  0  0  0  0  0
    2.7259    0.4695  -13.6362 C   0  0  0  0  0  0  0  0  0  0  0  0
    2.7655    1.6903  -14.3494 C   0  0  0  0  0  0  0  0  0  0  0  0
    3.1496    1.7319  -15.7213 C   0  0  0  0  0  0  0  0  0  0  0  0
    3.2073    2.9163  -16.4121 O   0  0  0  0  0  0  0  0  0  0  0  0
    2.0501    3.6015  -16.6169 C   0  0  0  0  0  0  0  0  0  0  0  0
    2.2914    4.6682  -17.4168 F   0  0  0  0  0  0  0  0  0  0  0  0
    1.1223    2.8347  -17.2425 F   0  0  0  0  0  0  0  0  0  0  0  0
    1.5243    4.0823  -15.4636 F   0  0  0  0  0  0  0  0  0  0  0  0
    3.5231    0.5436  -16.3953 C   0  0  0  0  0  0  0  0  0  0  0  0
    3.4723   -0.6516  -15.6628 C   0  0  0  0  0  0  0  0  0  0  0  0
    3.7408   -1.9710  -16.0319 N   0  0  0  0  0  0  0  0  0  0  0  0
  1  2  2  0
  2  3  1  0
  2 15  1  0
  3  4  1  0
  4  5  2  0
  4 14  1  0
  5  6  1  0
  6  7  2  0
  7  8  1  0
  7 13  1  0
  8  9  1  0
  9 10  1  0
  9 11  1  0
  9 12  1  0
 13 14  2  0
 14 15  1  0
M  END
>  <s_m_entry_id>  (16) 
90

>  <s_m_entry_name>  (16) 
ZINC000002547620.1

>  <s_m_Source_Path>  (16) 
/home/bhw/schrodinger/schrodinger/0995dock

>  <s_m_Source_File>  (16) 
0995dock_pv.maegz

>  <i_m_Source_File_Index>  (16) 
90

>  <zinc_id>  (16) 
ZINC000002547620

>  <smiles>  (16) 
O=c1[nH]c2ccc(OC(F)(F)F)cc2[nH]1

>  <chiral flag>  (16) 
0

>  <version>  (16) 
0

>  <i_lp_mmshare_version>  (16) 
44012

>  <s_epik_input>  (16) 
Tz1jKFtuSF0xKVtuSF1jKGMxMilbY0hdYyhbY0hdW2NIXTIpT0MoRikoRilG

>  <s_epik_cmdline>  (16) 
J2VwaWtfcHl0aG9uJywgJy1waCcsICc3LjAnLCAnLXRuJywgJzgnLCAnLW1hJywgJzIwMCcsICctaW1hZScsICc8aW5maWxlLm1hZT4nLCAnLW9tYWUnLCAnPG91dGZpbGUubWFlPic=

>  <r_epik_Ionization_Penalty>  (16) 
0.0000

>  <r_epik_Ionization_Penalty_Charging>  (16) 
0.0000

>  <r_epik_Ionization_Penalty_Neutral>  (16) 
0.0000

>  <r_epik_State_Penalty>  (16) 
0.0000

>  <r_epik_Charging_Adjusted_Penalty>  (16) 
3.40084831202509e-05

>  <i_epik_Tot_Q>  (16) 
0

>  <i_epik_Tot_abs_Q>  (16) 
0

>  <i_f3d_flags>  (16) 
0

>  <s_lp_Force_Field>  (16) 
OPLS_2005

>  <r_lp_Energy>  (16) 
31.192115

>  <b_lp_Chiralities_Consistent>  (16) 
1

>  <s_lp_Variant>  (16) 
ZINC000002547620-1

>  <s_m_job_name>  (16) 
zinc0995

>  <s_i_glide_gridfile>  (16) 
zincglide

>  <i_i_glide_lignum>  (16) 
2892

>  <i_i_glide_rotatable_bonds>  (16) 
2

>  <r_i_docking_score>  (16) 
-5.95346069996348

>  <r_i_glide_ligand_efficiency>  (16) 
-0.396897379997565

>  <r_i_glide_ligand_efficiency_sa>  (16) 
-0.978833109936548

>  <r_i_glide_ligand_efficiency_ln>  (16) 
-1.60555018866622

>  <r_i_glide_gscore>  (16) 
-5.95346069996348

>  <r_i_glide_lipo>  (16) 
-1.13274214598149

>  <r_i_glide_hbond>  (16) 
-0.548162282593022

>  <r_i_glide_metal>  (16) 
0

>  <r_i_glide_rewards>  (16) 
-2.51125058157726

>  <r_i_glide_evdw>  (16) 
-18.1473045349121

>  <r_i_glide_ecoul>  (16) 
-5.69293642044067

>  <r_i_glide_erotb>  (16) 
0

>  <r_i_glide_esite>  (16) 
0

>  <r_i_glide_emodel>  (16) 
-31.5666547796815

>  <r_i_glide_energy>  (16) 
-23.8402409553528

>  <r_i_glide_einternal>  (16) 
2.06447601318359

>  <i_i_glide_confnum>  (16) 
1

>  <i_i_glide_posenum>  (16) 
178

>  <r_i_glide_eff_state_penalty>  (16) 
0

>  <r_lp_tautomer_probability>  (16) 
1

>  <s_m_subgroup_title>  (16) 
0995dock_pv

>  <s_m_subgroupid>  (16) 
0995dock_pv

>  <b_m_subgroup_collapsed>  (16) 
0

>  <class>  (16) 
7

>  <isCentroid>  (16) 
flase

$$$$
ZINC000002547745
     RDKit          3D

 16 16  0  0  1  0  0  0  0  0999 V2000
    4.7107   12.2401  -20.8633 C   0  0  0  0  0  0  0  0  0  0  0  0
    4.7886   11.1609  -21.9705 C   0  0  2  0  0  0  0  0  0  0  0  0
    5.5267   10.1112  -21.4177 O   0  0  0  0  0  0  0  0  0  0  0  0
    5.5820   11.6912  -23.1738 C   0  0  0  0  0  0  0  0  0  0  0  0
    6.3228   10.9102  -23.8168 O   0  0  0  0  0  0  0  0  0  0  0  0
    5.5235   12.9132  -23.4062 O   0  0  0  0  0  0  0  0  0  0  0  0
    3.4195   10.6496  -22.4302 C   0  0  0  0  0  0  0  0  0  0  0  0
    2.2456   11.4250  -22.2851 C   0  0  0  0  0  0  0  0  0  0  0  0
    0.9886   10.8856  -22.6170 C   0  0  0  0  0  0  0  0  0  0  0  0
    0.8883    9.5714  -23.1096 C   0  0  0  0  0  0  0  0  0  0  0  0
    2.0494    8.7871  -23.2695 C   0  0  0  0  0  0  0  0  0  0  0  0
    1.9748    7.3614  -23.7884 C   0  0  0  0  0  0  0  0  0  0  0  0
    2.4770    7.3215  -25.0172 F   0  0  0  0  0  0  0  0  0  0  0  0
    2.6978    6.5507  -23.0173 F   0  0  0  0  0  0  0  0  0  0  0  0
    0.7218    6.9099  -23.8174 F   0  0  0  0  0  0  0  0  0  0  0  0
    3.3040    9.3350  -22.9392 C   0  0  0  0  0  0  0  0  0  0  0  0
  2  1  1  1
  2  3  1  0
  2  4  1  0
  2  7  1  0
  4  5  2  0
  4  6  1  0
  7  8  2  0
  7 16  1  0
  8  9  1  0
  9 10  2  0
 10 11  1  0
 11 12  1  0
 11 16  2  0
 12 13  1  0
 12 14  1  0
 12 15  1  0
M  CHG  1   6  -1
M  END
>  <s_m_entry_id>  (17) 
61

>  <s_m_entry_name>  (17) 
ZINC000002547745.1

>  <s_m_Source_Path>  (17) 
/home/bhw/schrodinger/schrodinger/0995dock

>  <s_m_Source_File>  (17) 
0995dock_pv.maegz

>  <i_m_Source_File_Index>  (17) 
61

>  <zinc_id>  (17) 
ZINC000002547745

>  <smiles>  (17) 
C[C@](O)(C(=O)O)c1cccc(C(F)(F)F)c1

>  <chiral flag>  (17) 
0

>  <version>  (17) 
0

>  <i_lp_mmshare_version>  (17) 
44012

>  <s_epik_input>  (17) 
Tz1DKFtPSF0pW0NAXShbQ0gzXSkoW09IXSljMVtjSF1bY0hdW2NIXWMoQyhGKShGKUYpW2NIXTE=

>  <s_epik_cmdline>  (17) 
J2VwaWtfcHl0aG9uJywgJy1waCcsICc3LjAnLCAnLXRuJywgJzgnLCAnLW1hJywgJzIwMCcsICctaW1hZScsICc8aW5maWxlLm1hZT4nLCAnLW9tYWUnLCAnPG91dGZpbGUubWFlPic=

>  <r_epik_Ionization_Penalty>  (17) 
0.0001

>  <r_epik_Ionization_Penalty_Charging>  (17) 
0.0001

>  <r_epik_Ionization_Penalty_Neutral>  (17) 
0.0000

>  <r_epik_State_Penalty>  (17) 
0.0000

>  <r_epik_Charging_Adjusted_Penalty>  (17) 
0.000110468239930685

>  <i_epik_Tot_Q>  (17) 
-1

>  <i_epik_Tot_abs_Q>  (17) 
1

>  <i_f3d_flags>  (17) 
0

>  <s_lp_Force_Field>  (17) 
OPLS_2005

>  <r_lp_Energy>  (17) 
13.948951

>  <b_lp_Chiralities_Consistent>  (17) 
1

>  <s_lp_Variant>  (17) 
ZINC000002547745-1

>  <s_m_job_name>  (17) 
zinc0995

>  <s_i_glide_gridfile>  (17) 
zincglide

>  <i_i_glide_lignum>  (17) 
2894

>  <i_i_glide_rotatable_bonds>  (17) 
4

>  <r_i_docking_score>  (17) 
-6.09275099679375

>  <r_i_glide_ligand_efficiency>  (17) 
-0.380796937299609

>  <r_i_glide_ligand_efficiency_sa>  (17) 
-0.959548153191741

>  <r_i_glide_ligand_efficiency_ln>  (17) 
-1.615005357164

>  <r_i_glide_gscore>  (17) 
-6.09275099679375

>  <r_i_glide_lipo>  (17) 
-0.150911112868156

>  <r_i_glide_hbond>  (17) 
-0.258277747870981

>  <r_i_glide_metal>  (17) 
0

>  <r_i_glide_rewards>  (17) 
-3.18002621786189

>  <r_i_glide_evdw>  (17) 
-13.0482301712036

>  <r_i_glide_ecoul>  (17) 
-13.6756830215454

>  <r_i_glide_erotb>  (17) 
0.220772402810797

>  <r_i_glide_esite>  (17) 
-0.0205443592115254

>  <r_i_glide_emodel>  (17) 
-41.1386588028499

>  <r_i_glide_energy>  (17) 
-26.723913192749

>  <r_i_glide_einternal>  (17) 
2.49164628982544

>  <i_i_glide_confnum>  (17) 
1

>  <i_i_glide_posenum>  (17) 
345

>  <r_i_glide_eff_state_penalty>  (17) 
0

>  <r_lp_tautomer_probability>  (17) 
1

>  <s_m_subgroup_title>  (17) 
0995dock_pv

>  <s_m_subgroupid>  (17) 
0995dock_pv

>  <b_m_subgroup_collapsed>  (17) 
0

>  <class>  (17) 
3

>  <isCentroid>  (17) 
flase

$$$$
ZINC000002555673
     RDKit          3D

 18 18  0  0  1  0  0  0  0  0999 V2000
    6.3237   11.2232  -21.4170 N   0  0  0  0  0  0  0  0  0  0  0  0
    5.4231   10.9070  -22.3430 C   0  0  0  0  0  0  0  0  0  0  0  0
    5.7773   10.6903  -23.5018 O   0  0  0  0  0  0  0  0  0  0  0  0
    3.9455   10.8493  -21.8782 C   0  0  0  0  0  0  0  0  0  0  0  0
    3.1674   12.0011  -22.5607 C   0  0  0  0  0  0  0  0  0  0  0  0
    1.8382   11.8972  -22.6170 N   0  0  0  0  0  0  0  0  0  0  0  0
    3.7345   12.9954  -23.0170 O   0  0  0  0  0  0  0  0  0  0  0  0
    3.2716    9.4774  -22.0870 C   0  0  0  0  0  0  0  0  0  0  0  0
    3.3729    8.9135  -23.3178 N   0  0  0  0  0  0  0  0  0  0  0  0
    2.7237    7.7552  -23.5646 C   0  0  0  0  0  0  0  0  0  0  0  0
    1.9710    7.0694  -22.5926 C   0  0  0  0  0  0  0  0  0  0  0  0
    1.2709    5.7628  -22.9194 C   0  0  0  0  0  0  0  0  0  0  0  0
    0.0665    6.0309  -23.4170 F   0  0  0  0  0  0  0  0  0  0  0  0
    1.9695    5.0687  -23.8170 F   0  0  0  0  0  0  0  0  0  0  0  0
    1.1237    5.0140  -21.8263 F   0  0  0  0  0  0  0  0  0  0  0  0
    1.8603    7.6502  -21.3156 C   0  0  0  0  0  0  0  0  0  0  0  0
    2.5054    8.8736  -21.0554 C   0  0  0  0  0  0  0  0  0  0  0  0
    2.2923    9.6030  -19.5030 Cl  0  0  0  0  0  0  0  0  0  0  0  0
  1  2  1  0
  2  3  2  0
  2  4  1  0
  4  5  1  0
  4  8  1  0
  5  6  1  0
  5  7  2  0
  8  9  2  0
  8 17  1  0
  9 10  1  0
 10 11  2  0
 11 12  1  0
 11 16  1  0
 12 13  1  0
 12 14  1  0
 12 15  1  0
 16 17  2  0
 17 18  1  0
M  END
>  <s_m_entry_id>  (18) 
40

>  <s_m_entry_name>  (18) 
ZINC000002555673.1

>  <s_m_Source_Path>  (18) 
/home/bhw/schrodinger/schrodinger/0995dock

>  <s_m_Source_File>  (18) 
0995dock_pv.maegz

>  <i_m_Source_File_Index>  (18) 
40

>  <zinc_id>  (18) 
ZINC000002555673

>  <smiles>  (18) 
NC(=O)C(C(N)=O)c1ncc(C(F)(F)F)cc1Cl

>  <chiral flag>  (18) 
0

>  <version>  (18) 
0

>  <i_lp_mmshare_version>  (18) 
44012

>  <s_epik_input>  (18) 
W05IMl1DKD1PKVtDSF0oQyg9TylbTkgyXSljMW5bY0hdYyhDKEYpKEYpRilbY0hdYzFDbA==

>  <s_epik_cmdline>  (18) 
J2VwaWtfcHl0aG9uJywgJy1waCcsICc3LjAnLCAnLXRuJywgJzgnLCAnLW1hJywgJzIwMCcsICctaW1hZScsICc8aW5maWxlLm1hZT4nLCAnLW9tYWUnLCAnPG91dGZpbGUubWFlPic=

>  <r_epik_Ionization_Penalty>  (18) 
0.0001

>  <r_epik_Ionization_Penalty_Charging>  (18) 
0.0000

>  <r_epik_Ionization_Penalty_Neutral>  (18) 
0.0001

>  <r_epik_State_Penalty>  (18) 
0.0000

>  <r_epik_Charging_Adjusted_Penalty>  (18) 
0

>  <i_epik_Tot_Q>  (18) 
0

>  <i_epik_Tot_abs_Q>  (18) 
0

>  <i_f3d_flags>  (18) 
0

>  <s_lp_Force_Field>  (18) 
OPLS_2005

>  <r_lp_Energy>  (18) 
14.235649

>  <b_lp_Chiralities_Consistent>  (18) 
1

>  <s_lp_Variant>  (18) 
ZINC000002555673-1

>  <s_m_job_name>  (18) 
zinc0995

>  <s_i_glide_gridfile>  (18) 
zincglide

>  <i_i_glide_lignum>  (18) 
2913

>  <i_i_glide_rotatable_bonds>  (18) 
4

>  <r_i_docking_score>  (18) 
-6.22628768699258

>  <r_i_glide_ligand_efficiency>  (18) 
-0.345904871499588

>  <r_i_glide_ligand_efficiency_sa>  (18) 
-0.906527214324078

>  <r_i_glide_ligand_efficiency_ln>  (18) 
-1.60043514462475

>  <r_i_glide_gscore>  (18) 
-6.22628768699258

>  <r_i_glide_lipo>  (18) 
-0.344742746103001

>  <r_i_glide_hbond>  (18) 
-0.638467110355283

>  <r_i_glide_metal>  (18) 
0

>  <r_i_glide_rewards>  (18) 
-2.16600909513015

>  <r_i_glide_evdw>  (18) 
-22.4585838317871

>  <r_i_glide_ecoul>  (18) 
-12.8268013000488

>  <r_i_glide_erotb>  (18) 
0.227968570895706

>  <r_i_glide_esite>  (18) 
-0.258087919703168

>  <r_i_glide_emodel>  (18) 
-48.7309646960612

>  <r_i_glide_energy>  (18) 
-35.2853851318359

>  <r_i_glide_einternal>  (18) 
2.42838835716248

>  <i_i_glide_confnum>  (18) 
2

>  <i_i_glide_posenum>  (18) 
385

>  <r_i_glide_eff_state_penalty>  (18) 
0

>  <r_lp_tautomer_probability>  (18) 
1

>  <s_m_subgroup_title>  (18) 
0995dock_pv

>  <s_m_subgroupid>  (18) 
0995dock_pv

>  <b_m_subgroup_collapsed>  (18) 
0

>  <class>  (18) 
7

>  <isCentroid>  (18) 
flase

$$$$
ZINC000003223719
     RDKit          3D

 16 16  0  0  1  0  0  0  0  0999 V2000
    5.1248    9.7137  -22.9329 O   0  0  0  0  0  0  0  0  0  0  0  0
    5.4652   10.9122  -23.0175 C   0  0  0  0  0  0  0  0  0  0  0  0
    6.3238   11.3474  -23.8171 O   0  0  0  0  0  0  0  0  0  0  0  0
    4.8952   11.8932  -21.9907 C   0  0  0  0  0  0  0  0  0  0  0  0
    3.3748   12.2514  -22.1059 C   0  0  2  0  0  0  0  0  0  0  0  0
    3.1244   12.7540  -23.4162 O   0  0  0  0  0  0  0  0  0  0  0  0
    3.0791   13.3191  -21.0377 C   0  0  0  0  0  0  0  0  0  0  0  0
    2.6154   14.6102  -21.3928 C   0  0  0  0  0  0  0  0  0  0  0  0
    2.4194   15.5996  -20.4094 C   0  0  0  0  0  0  0  0  0  0  0  0
    2.6828   15.3132  -19.0574 C   0  0  0  0  0  0  0  0  0  0  0  0
    3.1292   14.0316  -18.6876 C   0  0  0  0  0  0  0  0  0  0  0  0
    3.3221   13.0420  -19.6699 C   0  0  0  0  0  0  0  0  0  0  0  0
    2.4186   11.0281  -21.9484 C   0  0  0  0  0  0  0  0  0  0  0  0
    2.7312   10.3075  -20.8703 F   0  0  0  0  0  0  0  0  0  0  0  0
    1.1642   11.4585  -21.8055 F   0  0  0  0  0  0  0  0  0  0  0  0
    2.4466   10.2209  -23.0095 F   0  0  0  0  0  0  0  0  0  0  0  0
  1  2  2  0
  2  3  1  0
  2  4  1  0
  4  5  1  0
  5  6  1  6
  5  7  1  0
  5 13  1  0
  7  8  2  0
  7 12  1  0
  8  9  1  0
  9 10  2  0
 10 11  1  0
 11 12  2  0
 13 14  1  0
 13 15  1  0
 13 16  1  0
M  CHG  1   3  -1
M  END
>  <s_m_entry_id>  (19) 
62

>  <s_m_entry_name>  (19) 
ZINC000003223719.1

>  <s_m_Source_Path>  (19) 
/home/bhw/schrodinger/schrodinger/0995dock

>  <s_m_Source_File>  (19) 
0995dock_pv.maegz

>  <i_m_Source_File_Index>  (19) 
62

>  <zinc_id>  (19) 
ZINC000003223719

>  <smiles>  (19) 
O=C(O)C[C@](O)(c1ccccc1)C(F)(F)F

>  <chiral flag>  (19) 
0

>  <version>  (19) 
0

>  <i_lp_mmshare_version>  (19) 
44012

>  <s_epik_input>  (19) 
Tz1DKFtPSF0pW0NIMl1bQ0BAXShbT0hdKShDKEYpKEYpRiljMVtjSF1bY0hdW2NIXVtjSF1bY0hdMQ==

>  <s_epik_cmdline>  (19) 
J2VwaWtfcHl0aG9uJywgJy1waCcsICc3LjAnLCAnLXRuJywgJzgnLCAnLW1hJywgJzIwMCcsICctaW1hZScsICc8aW5maWxlLm1hZT4nLCAnLW9tYWUnLCAnPG91dGZpbGUubWFlPic=

>  <r_epik_Ionization_Penalty>  (19) 
0.0002

>  <r_epik_Ionization_Penalty_Charging>  (19) 
0.0002

>  <r_epik_Ionization_Penalty_Neutral>  (19) 
0.0000

>  <r_epik_State_Penalty>  (19) 
0.0000

>  <r_epik_Charging_Adjusted_Penalty>  (19) 
0.000214802926481226

>  <i_epik_Tot_Q>  (19) 
-1

>  <i_epik_Tot_abs_Q>  (19) 
1

>  <i_f3d_flags>  (19) 
0

>  <s_lp_Force_Field>  (19) 
OPLS_2005

>  <r_lp_Energy>  (19) 
2.944138

>  <b_lp_Chiralities_Consistent>  (19) 
1

>  <s_lp_Variant>  (19) 
ZINC000003223719-1

>  <s_m_job_name>  (19) 
zinc0995

>  <s_i_glide_gridfile>  (19) 
zincglide

>  <i_i_glide_lignum>  (19) 
4006

>  <i_i_glide_rotatable_bonds>  (19) 
5

>  <r_i_docking_score>  (19) 
-6.08782339462047

>  <r_i_glide_ligand_efficiency>  (19) 
-0.38048896216378

>  <r_i_glide_ligand_efficiency_sa>  (19) 
-0.958772104479506

>  <r_i_glide_ligand_efficiency_ln>  (19) 
-1.61369919777689

>  <r_i_glide_gscore>  (19) 
-6.08782339462047

>  <r_i_glide_lipo>  (19) 
0

>  <r_i_glide_hbond>  (19) 
-0.674695319854827

>  <r_i_glide_metal>  (19) 
0

>  <r_i_glide_rewards>  (19) 
-2.62158837567773

>  <r_i_glide_evdw>  (19) 
-12.3308143615723

>  <r_i_glide_ecoul>  (19) 
-15.4109497070312

>  <r_i_glide_erotb>  (19) 
0.220772402810797

>  <r_i_glide_esite>  (19) 
-0.0841289277654104

>  <r_i_glide_emodel>  (19) 
-42.6797425964198

>  <r_i_glide_energy>  (19) 
-27.7417640686035

>  <r_i_glide_einternal>  (19) 
3.53433561325073

>  <i_i_glide_confnum>  (19) 
2

>  <i_i_glide_posenum>  (19) 
305

>  <r_i_glide_eff_state_penalty>  (19) 
0

>  <r_lp_tautomer_probability>  (19) 
1

>  <s_m_subgroup_title>  (19) 
0995dock_pv

>  <s_m_subgroupid>  (19) 
0995dock_pv

>  <b_m_subgroup_collapsed>  (19) 
0

>  <class>  (19) 
3

>  <isCentroid>  (19) 
flase

$$$$
ZINC000003263090
     RDKit          3D

 27 29  0  0  1  0  0  0  0  0999 V2000
    2.3581    6.7424  -18.8219 C   0  0  0  0  0  0  0  0  0  0  0  0
    1.0285    6.8334  -19.5790 C   0  0  0  0  0  0  0  0  0  0  0  0
    1.0852    6.1528  -20.9398 C   0  0  0  0  0  0  0  0  0  0  0  0
    0.6816    4.8055  -21.0383 C   0  0  0  0  0  0  0  0  0  0  0  0
    0.7233    4.1367  -22.2745 C   0  0  0  0  0  0  0  0  0  0  0  0
    1.1671    4.8136  -23.4233 C   0  0  0  0  0  0  0  0  0  0  0  0
    1.5720    6.1642  -23.3545 C   0  0  0  0  0  0  0  0  0  0  0  0
    2.0667    6.8406  -24.6340 C   0  0  0  0  0  0  0  0  0  0  0  0
    1.2014    8.0078  -25.1464 C   0  0  0  0  0  0  0  0  0  0  0  0
    1.5401    6.8308  -22.0991 C   0  0  0  0  0  0  0  0  0  0  0  0
    1.8751    8.1989  -22.0238 N   0  0  0  0  0  0  0  0  0  0  0  0
    3.1171    8.6994  -22.0508 C   0  0  0  0  0  0  0  0  0  0  0  0
    4.1386    8.0523  -21.8153 O   0  0  0  0  0  0  0  0  0  0  0  0
    3.2011   10.1793  -22.4043 C   0  0  0  0  0  0  0  0  0  0  0  0
    4.2889   10.3922  -23.3027 O   0  0  0  0  0  0  0  0  0  0  0  0
    5.4649   10.9583  -22.9732 C   0  0  0  0  0  0  0  0  0  0  0  0
    6.3265   11.1860  -23.8148 O   0  0  0  0  0  0  0  0  0  0  0  0
    5.6997   11.3424  -21.5077 C   0  0  0  0  0  0  0  0  0  0  0  0
    5.5158   12.8326  -21.3551 C   0  0  0  0  0  0  0  0  0  0  0  0
    6.3636   13.6076  -20.6066 C   0  0  0  0  0  0  0  0  0  0  0  0
    5.9233   14.9134  -20.6170 N   0  0  0  0  0  0  0  0  0  0  0  0
    4.7706   15.0364  -21.3550 C   0  0  0  0  0  0  0  0  0  0  0  0
    3.9520   16.1454  -21.6314 C   0  0  0  0  0  0  0  0  0  0  0  0
    2.7969   15.9776  -22.4139 C   0  0  0  0  0  0  0  0  0  0  0  0
    2.4776   14.7015  -22.9145 C   0  0  0  0  0  0  0  0  0  0  0  0
    3.3084   13.6012  -22.6338 C   0  0  0  0  0  0  0  0  0  0  0  0
    4.4777   13.7271  -21.8406 C   0  0  0  0  0  0  0  0  0  0  0  0
  1  2  1  0
  2  3  1  0
  3  4  2  0
  3 10  1  0
  4  5  1  0
  5  6  2  0
  6  7  1  0
  7  8  1  0
  7 10  2  0
  8  9  1  0
 10 11  1  0
 11 12  1  0
 12 13  2  0
 12 14  1  0
 14 15  1  0
 15 16  1  0
 16 17  2  0
 16 18  1  0
 18 19  1  0
 19 20  2  0
 19 27  1  0
 20 21  1  0
 21 22  1  0
 22 23  1  0
 22 27  2  0
 23 24  2  0
 24 25  1  0
 25 26  2  0
 26 27  1  0
M  END
>  <s_m_entry_id>  (20) 
50

>  <s_m_entry_name>  (20) 
ZINC000003263090.1

>  <s_m_Source_Path>  (20) 
/home/bhw/schrodinger/schrodinger/0995dock

>  <s_m_Source_File>  (20) 
0995dock_pv.maegz

>  <i_m_Source_File_Index>  (20) 
50

>  <zinc_id>  (20) 
ZINC000003263090

>  <smiles>  (20) 
CCc1cccc(CC)c1NC(=O)COC(=O)Cc1c[nH]c2ccccc12

>  <chiral flag>  (20) 
0

>  <version>  (20) 
0

>  <i_lp_mmshare_version>  (20) 
44012

>  <s_epik_input>  (20) 
W0NIM11bQ0gyXWMxW2NIXVtjSF1bY0hdYyhbQ0gyXVtDSDNdKWMxW05IXUMoPU8pW0NIMl1PQyg9TylbQ0gyXWMoW2NIXVtuSF0yKWMoYzIzKVtjSF1bY0hdW2NIXVtjSF0z

>  <s_epik_cmdline>  (20) 
J2VwaWtfcHl0aG9uJywgJy1waCcsICc3LjAnLCAnLXRuJywgJzgnLCAnLW1hJywgJzIwMCcsICctaW1hZScsICc8aW5maWxlLm1hZT4nLCAnLW9tYWUnLCAnPG91dGZpbGUubWFlPic=

>  <r_epik_Ionization_Penalty>  (20) 
0.0000

>  <r_epik_Ionization_Penalty_Charging>  (20) 
0.0000

>  <r_epik_Ionization_Penalty_Neutral>  (20) 
0.0000

>  <r_epik_State_Penalty>  (20) 
0.0000

>  <r_epik_Charging_Adjusted_Penalty>  (20) 
0

>  <i_epik_Tot_Q>  (20) 
0

>  <i_epik_Tot_abs_Q>  (20) 
0

>  <s_epik_Chemistry_Notes>  (20) 
This compound has an ester and may undergo hydrolysis at high or low pH.

>  <i_f3d_flags>  (20) 
0

>  <s_lp_Force_Field>  (20) 
OPLS_2005

>  <r_lp_Energy>  (20) 
19.615481

>  <b_lp_Chiralities_Consistent>  (20) 
1

>  <s_lp_Variant>  (20) 
ZINC000003263090-1

>  <s_m_job_name>  (20) 
zinc0995

>  <s_i_glide_gridfile>  (20) 
zincglide

>  <i_i_glide_lignum>  (20) 
4031

>  <i_i_glide_rotatable_bonds>  (20) 
9

>  <r_i_docking_score>  (20) 
-6.1503350324775

>  <r_i_glide_ligand_efficiency>  (20) 
-0.227790186388056

>  <r_i_glide_ligand_efficiency_sa>  (20) 
-0.683370558413408

>  <r_i_glide_ligand_efficiency_ln>  (20) 
-1.43169659936321

>  <r_i_glide_gscore>  (20) 
-6.1503350324775

>  <r_i_glide_lipo>  (20) 
-1.38761335243437

>  <r_i_glide_hbond>  (20) 
-0.492842010934208

>  <r_i_glide_metal>  (20) 
0

>  <r_i_glide_rewards>  (20) 
-1.18789374987767

>  <r_i_glide_evdw>  (20) 
-38.4191589355469

>  <r_i_glide_ecoul>  (20) 
-12.8390636444092

>  <r_i_glide_erotb>  (20) 
0.868494094511886

>  <r_i_glide_esite>  (20) 
-0.10366252030442

>  <r_i_glide_emodel>  (20) 
-66.7621857043434

>  <r_i_glide_energy>  (20) 
-51.2582225799561

>  <r_i_glide_einternal>  (20) 
10.9284019470215

>  <i_i_glide_confnum>  (20) 
18

>  <i_i_glide_posenum>  (20) 
302

>  <r_i_glide_eff_state_penalty>  (20) 
0

>  <r_lp_tautomer_probability>  (20) 
1

>  <s_m_subgroup_title>  (20) 
0995dock_pv

>  <s_m_subgroupid>  (20) 
0995dock_pv

>  <b_m_subgroup_collapsed>  (20) 
0

>  <class>  (20) 
2

>  <isCentroid>  (20) 
flase

$$$$
ZINC000003285722
     RDKit          3D

 28 30  0  0  1  0  0  0  0  0999 V2000
    1.2094    8.0994  -25.1638 C   0  0  0  0  0  0  0  0  0  0  0  0
    2.1389    7.0001  -24.6278 C   0  0  0  0  0  0  0  0  0  0  0  0
    1.6294    6.3075  -23.3670 C   0  0  0  0  0  0  0  0  0  0  0  0
    1.1974    4.9676  -23.4624 C   0  0  0  0  0  0  0  0  0  0  0  0
    0.7280    4.2825  -22.3293 C   0  0  0  0  0  0  0  0  0  0  0  0
    0.6895    4.9316  -21.0834 C   0  0  0  0  0  0  0  0  0  0  0  0
    1.1192    6.2691  -20.9592 C   0  0  0  0  0  0  0  0  0  0  0  0
    1.0653    6.9232  -19.5846 C   0  0  0  0  0  0  0  0  0  0  0  0
    2.3503    6.6918  -18.7792 C   0  0  0  0  0  0  0  0  0  0  0  0
    1.5985    6.9581  -22.1041 C   0  0  0  0  0  0  0  0  0  0  0  0
    2.0011    8.3100  -21.9941 N   0  0  0  0  0  0  0  0  0  0  0  0
    3.2701    8.7211  -21.8646 C   0  0  0  0  0  0  0  0  0  0  0  0
    4.2294    7.9565  -21.7570 O   0  0  0  0  0  0  0  0  0  0  0  0
    3.5112   10.2242  -21.8862 C   0  0  0  0  0  0  0  0  0  0  0  0
    4.3233   10.4861  -23.0262 O   0  0  0  0  0  0  0  0  0  0  0  0
    5.4041   11.2885  -23.0031 C   0  0  0  0  0  0  0  0  0  0  0  0
    6.3208   11.1671  -23.8171 O   0  0  0  0  0  0  0  0  0  0  0  0
    5.4187   12.3394  -21.9663 C   0  0  0  0  0  0  0  0  0  0  0  0
    6.4531   12.3363  -21.1081 C   0  0  0  0  0  0  0  0  0  0  0  0
    6.7385   13.4497  -20.2172 C   0  0  0  0  0  0  0  0  0  0  0  0
    7.6820   13.4495  -19.4334 O   0  0  0  0  0  0  0  0  0  0  0  0
    5.9247   14.5135  -20.3573 N   0  0  0  0  0  0  0  0  0  0  0  0
    4.7835   14.5740  -21.1967 C   0  0  0  0  0  0  0  0  0  0  0  0
    3.9591   15.7147  -21.1692 C   0  0  0  0  0  0  0  0  0  0  0  0
    2.7978   15.7541  -21.9639 C   0  0  0  0  0  0  0  0  0  0  0  0
    2.4609   14.6521  -22.7739 C   0  0  0  0  0  0  0  0  0  0  0  0
    3.2938   13.5177  -22.8106 C   0  0  0  0  0  0  0  0  0  0  0  0
    4.4734   13.4751  -22.0308 C   0  0  0  0  0  0  0  0  0  0  0  0
  1  2  1  0
  2  3  1  0
  3  4  2  0
  3 10  1  0
  4  5  1  0
  5  6  2  0
  6  7  1  0
  7  8  1  0
  7 10  2  0
  8  9  1  0
 10 11  1  0
 11 12  1  0
 12 13  2  0
 12 14  1  0
 14 15  1  0
 15 16  1  0
 16 17  2  0
 16 18  1  0
 18 19  2  0
 18 28  1  0
 19 20  1  0
 20 21  2  0
 20 22  1  0
 22 23  1  0
 23 24  1  0
 23 28  2  0
 24 25  2  0
 25 26  1  0
 26 27  2  0
 27 28  1  0
M  END
>  <s_m_entry_id>  (21) 
44

>  <s_m_entry_name>  (21) 
ZINC000003285722.1

>  <s_m_Source_Path>  (21) 
/home/bhw/schrodinger/schrodinger/0995dock

>  <s_m_Source_File>  (21) 
0995dock_pv.maegz

>  <i_m_Source_File_Index>  (21) 
44

>  <zinc_id>  (21) 
ZINC000003285722

>  <smiles>  (21) 
CCc1cccc(CC)c1NC(=O)COC(=O)c1cc(=O)[nH]c2ccccc12

>  <chiral flag>  (21) 
0

>  <version>  (21) 
0

>  <i_lp_mmshare_version>  (21) 
44012

>  <s_epik_input>  (21) 
W0NIM11bQ0gyXWMxW2NIXVtjSF1bY0hdYyhbQ0gyXVtDSDNdKWMxW05IXUMoPU8pW0NIMl1PQyg9TyljKFtjSF1jKD1PKVtuSF0yKWMoYzIzKVtjSF1bY0hdW2NIXVtjSF0z

>  <s_epik_cmdline>  (21) 
J2VwaWtfcHl0aG9uJywgJy1waCcsICc3LjAnLCAnLXRuJywgJzgnLCAnLW1hJywgJzIwMCcsICctaW1hZScsICc8aW5maWxlLm1hZT4nLCAnLW9tYWUnLCAnPG91dGZpbGUubWFlPic=

>  <r_epik_Ionization_Penalty>  (21) 
0.0121

>  <r_epik_Ionization_Penalty_Charging>  (21) 
0.0121

>  <r_epik_Ionization_Penalty_Neutral>  (21) 
0.0000

>  <r_epik_State_Penalty>  (21) 
0.0098

>  <r_epik_Charging_Adjusted_Penalty>  (21) 
0.0219533661781147

>  <i_epik_Tot_Q>  (21) 
0

>  <i_epik_Tot_abs_Q>  (21) 
0

>  <s_epik_Chemistry_Notes>  (21) 
This compound has an ester and may undergo hydrolysis at high or low pH.

>  <i_f3d_flags>  (21) 
0

>  <s_lp_Force_Field>  (21) 
OPLS_2005

>  <r_lp_Energy>  (21) 
31.20502

>  <b_lp_Chiralities_Consistent>  (21) 
1

>  <s_lp_Variant>  (21) 
ZINC000003285722-1

>  <s_m_job_name>  (21) 
zinc0995

>  <s_i_glide_gridfile>  (21) 
zincglide

>  <i_i_glide_lignum>  (21) 
4064

>  <i_i_glide_rotatable_bonds>  (21) 
8

>  <r_i_docking_score>  (21) 
-6.19965918633272

>  <r_i_glide_ligand_efficiency>  (21) 
-0.221416399511883

>  <r_i_glide_ligand_efficiency_sa>  (21) 
-0.672350596203397

>  <r_i_glide_ligand_efficiency_ln>  (21) 
-1.431063370109

>  <r_i_glide_gscore>  (21) 
-6.20945918633272

>  <r_i_glide_lipo>  (21) 
-1.41042987840703

>  <r_i_glide_hbond>  (21) 
-0.592120922059538

>  <r_i_glide_metal>  (21) 
0

>  <r_i_glide_rewards>  (21) 
-1.01703745070466

>  <r_i_glide_evdw>  (21) 
-42.0395812988281

>  <r_i_glide_ecoul>  (21) 
-11.153039932251

>  <r_i_glide_erotb>  (21) 
0.676628771348962

>  <r_i_glide_esite>  (21) 
-0.0915646517314051

>  <r_i_glide_emodel>  (21) 
-66.8195453522603

>  <r_i_glide_energy>  (21) 
-53.1926212310791

>  <r_i_glide_einternal>  (21) 
10.7769441604614

>  <i_i_glide_confnum>  (21) 
50

>  <i_i_glide_posenum>  (21) 
176

>  <r_i_glide_eff_state_penalty>  (21) 
0.0098

>  <s_m_subgroup_title>  (21) 
0995dock_pv

>  <s_m_subgroupid>  (21) 
0995dock_pv

>  <b_m_subgroup_collapsed>  (21) 
0

>  <class>  (21) 
2

>  <isCentroid>  (21) 
flase

$$$$
ZINC000003869310
     RDKit          3D

 18 20  0  0  1  0  0  0  0  0999 V2000
    2.3237    6.8542  -23.9594 C   0  0  0  0  0  0  0  0  0  0  0  0
    2.3870    8.3644  -24.2299 C   0  0  2  0  0  0  0  0  0  0  0  0
    3.5525    8.9135  -23.6210 O   0  0  0  0  0  0  0  0  0  0  0  0
    3.2091    9.5877  -22.4508 C   0  0  1  0  0  0  0  0  0  0  0  0
    4.2129   10.6754  -22.2284 N   0  0  0  0  0  0  0  0  0  0  0  0
    5.2727   11.0546  -23.0186 C   0  0  0  0  0  0  0  0  0  0  0  0
    5.9237   12.1135  -22.6170 N   0  0  0  0  0  0  0  0  0  0  0  0
    5.2748   12.4770  -21.4410 C   0  0  0  0  0  0  0  0  0  0  0  0
    4.2252   11.5564  -21.1687 C   0  0  0  0  0  0  0  0  0  0  0  0
    3.3828   11.5874  -20.0961 N   0  0  0  0  0  0  0  0  0  0  0  0
    3.6586   12.6184  -19.2917 C   0  0  0  0  0  0  0  0  0  0  0  0
    4.5939   13.5632  -19.4347 N   0  0  0  0  0  0  0  0  0  0  0  0
    5.4229   13.5310  -20.5016 C   0  0  0  0  0  0  0  0  0  0  0  0
    6.3270   14.5135  -20.6170 N   0  0  0  0  0  0  0  0  0  0  0  0
    1.7842   10.1374  -22.6606 C   0  0  1  0  0  0  0  0  0  0  0  0
    1.7461   11.5149  -23.0170 O   0  0  0  0  0  0  0  0  0  0  0  0
    1.1873    9.1418  -23.6598 C   0  0  1  0  0  0  0  0  0  0  0  0
    0.3880    9.7135  -24.6806 O   0  0  0  0  0  0  0  0  0  0  0  0
  2  1  1  1
  2  3  1  0
  2 17  1  0
  3  4  1  0
  4  5  1  6
  4 15  1  0
  5  6  1  0
  5  9  1  0
  6  7  2  0
  7  8  1  0
  8  9  2  0
  8 13  1  0
  9 10  1  0
 10 11  2  0
 11 12  1  0
 12 13  2  0
 13 14  1  0
 15 16  1  6
 15 17  1  0
 17 18  1  6
M  END
>  <s_m_entry_id>  (22) 
97

>  <s_m_entry_name>  (22) 
ZINC000003869310.1

>  <s_m_Source_Path>  (22) 
/home/bhw/schrodinger/schrodinger/0995dock

>  <s_m_Source_File>  (22) 
0995dock_pv.maegz

>  <i_m_Source_File_Index>  (22) 
97

>  <zinc_id>  (22) 
ZINC000003869310

>  <smiles>  (22) 
C[C@@H]1O[C@@H](n2cnc3c(N)ncnc32)[C@@H](O)[C@H]1O

>  <chiral flag>  (22) 
0

>  <version>  (22) 
0

>  <i_lp_mmshare_version>  (22) 
44012

>  <s_epik_input>  (22) 
W0NIM11bQ0BASF0xT1tDQEhdKFtDQEBIXShbT0hdKVtDQEhdMVtPSF0pbihbY0hdbjIpYyhjMjMpbltjSF1uYzNbTkgyXQ==

>  <s_epik_cmdline>  (22) 
J2VwaWtfcHl0aG9uJywgJy1waCcsICc3LjAnLCAnLXRuJywgJzgnLCAnLW1hJywgJzIwMCcsICctaW1hZScsICc8aW5maWxlLm1hZT4nLCAnLW9tYWUnLCAnPG91dGZpbGUubWFlPic=

>  <r_epik_Ionization_Penalty>  (22) 
0.0004

>  <r_epik_Ionization_Penalty_Charging>  (22) 
0.0000

>  <r_epik_Ionization_Penalty_Neutral>  (22) 
0.0004

>  <r_epik_State_Penalty>  (22) 
0.0000

>  <r_epik_Charging_Adjusted_Penalty>  (22) 
0

>  <i_epik_Tot_Q>  (22) 
0

>  <i_epik_Tot_abs_Q>  (22) 
0

>  <s_epik_Chemistry_Notes>  (22) 
This compound contains an acetal/aminal-like group ( X-CH(R)-Y where X, Y are N, S, or O) that may be acid/base labile, releasing an aldehyde.

>  <i_f3d_flags>  (22) 
0

>  <s_lp_Force_Field>  (22) 
OPLS_2005

>  <r_lp_Energy>  (22) 
44.855513

>  <b_lp_Chiralities_Consistent>  (22) 
1

>  <s_lp_Variant>  (22) 
ZINC000003869310-1

>  <s_m_job_name>  (22) 
zinc0995

>  <s_i_glide_gridfile>  (22) 
zincglide

>  <i_i_glide_lignum>  (22) 
4508

>  <i_i_glide_rotatable_bonds>  (22) 
3

>  <r_i_docking_score>  (22) 
-5.94116789091751

>  <r_i_glide_ligand_efficiency>  (22) 
-0.33006488282875

>  <r_i_glide_ligand_efficiency_sa>  (22) 
-0.865014700370611

>  <r_i_glide_ligand_efficiency_ln>  (22) 
-1.52714657123934

>  <r_i_glide_gscore>  (22) 
-5.94116789091751

>  <r_i_glide_lipo>  (22) 
-0.290644419345283

>  <r_i_glide_hbond>  (22) 
-0.549484049181546

>  <r_i_glide_metal>  (22) 
0

>  <r_i_glide_rewards>  (22) 
-1.98343964113126

>  <r_i_glide_evdw>  (22) 
-20.8714046478271

>  <r_i_glide_ecoul>  (22) 
-14.4506244659424

>  <r_i_glide_erotb>  (22) 
0.277630795988632

>  <r_i_glide_esite>  (22) 
-0.184066674965342

>  <r_i_glide_emodel>  (22) 
-47.7243563691579

>  <r_i_glide_energy>  (22) 
-35.3220291137695

>  <r_i_glide_einternal>  (22) 
2.45353817939758

>  <i_i_glide_confnum>  (22) 
10

>  <i_i_glide_posenum>  (22) 
300

>  <r_i_glide_eff_state_penalty>  (22) 
0

>  <r_lp_tautomer_probability>  (22) 
1

>  <s_m_subgroup_title>  (22) 
0995dock_pv

>  <s_m_subgroupid>  (22) 
0995dock_pv

>  <b_m_subgroup_collapsed>  (22) 
0

>  <class>  (22) 
1

>  <isCentroid>  (22) 
flase

$$$$
ZINC000003901948
     RDKit          3D

 19 20  0  0  1  0  0  0  0  0999 V2000
    6.1601   13.0047  -21.4063 C   0  0  0  0  0  0  0  0  0  0  0  0
    5.1964   11.9192  -21.7980 C   0  0  0  0  0  0  0  0  0  0  0  0
    3.9963   11.9137  -21.3122 N   0  0  0  0  0  0  0  0  0  0  0  0
    3.1342   10.9402  -21.6640 N   0  0  0  0  0  0  0  0  0  0  0  0
    3.4117    9.8760  -22.5314 C   0  0  0  0  0  0  0  0  0  0  0  0
    2.4358    9.0566  -22.7699 N   0  0  0  0  0  0  0  0  0  0  0  0
    2.7359    7.9805  -23.6567 N   0  0  0  0  0  0  0  0  0  0  0  0
    2.1018    6.9368  -23.3244 C   0  0  0  0  0  0  0  0  0  0  0  0
    2.1663    5.6300  -24.0864 C   0  0  0  0  0  0  0  0  0  0  0  0
    1.8817    4.3944  -23.2037 C   0  0  0  0  0  0  0  0  0  0  0  0
    0.4276    3.9932  -22.9805 C   0  0  0  0  0  0  0  0  0  0  0  0
   -0.6364    4.9234  -23.0171 C   0  0  0  0  0  0  0  0  0  0  0  0
   -1.9560    4.5070  -22.7530 C   0  0  0  0  0  0  0  0  0  0  0  0
   -2.2259    3.1582  -22.4556 C   0  0  0  0  0  0  0  0  0  0  0  0
   -1.1716    2.2280  -22.4091 C   0  0  0  0  0  0  0  0  0  0  0  0
    0.1484    2.6471  -22.6635 C   0  0  0  0  0  0  0  0  0  0  0  0
    4.7161    9.8327  -23.0374 N   0  0  0  0  0  0  0  0  0  0  0  0
    5.5977   10.8362  -22.7554 C   0  0  0  0  0  0  0  0  0  0  0  0
    6.7232   10.9135  -23.2478 O   0  0  0  0  0  0  0  0  0  0  0  0
  1  2  1  0
  2  3  2  0
  2 18  1  0
  3  4  1  0
  4  5  1  0
  5  6  2  0
  5 17  1  0
  6  7  1  0
  7  8  2  0
  8  9  1  0
  9 10  1  0
 10 11  1  0
 11 12  2  0
 11 16  1  0
 12 13  1  0
 13 14  2  0
 14 15  1  0
 15 16  2  0
 17 18  1  0
 18 19  2  0
M  CHG  1  17  -1
M  END
>  <s_m_entry_id>  (23) 
36

>  <s_m_entry_name>  (23) 
ZINC000003901948.1

>  <s_m_Source_Path>  (23) 
/home/bhw/schrodinger/schrodinger/0995dock

>  <s_m_Source_File>  (23) 
0995dock_pv.maegz

>  <i_m_Source_File_Index>  (23) 
36

>  <zinc_id>  (23) 
ZINC000003901948

>  <smiles>  (23) 
Cc1nnc(N/N=C/CCc2ccccc2)[nH]c1=O

>  <chiral flag>  (23) 
0

>  <version>  (23) 
0

>  <i_lp_mmshare_version>  (23) 
44012

>  <s_epik_input>  (23) 
W0NIM11jMW5uYyhbbkhdYzE9TylbTkhdL049W0NIXS9bQ0gyXVtDSDJdYzJbY0hdW2NIXVtjSF1bY0hdW2NIXTI=

>  <s_epik_cmdline>  (23) 
J2VwaWtfcHl0aG9uJywgJy1waCcsICc3LjAnLCAnLXRuJywgJzgnLCAnLW1hJywgJzIwMCcsICctaW1hZScsICc8aW5maWxlLm1hZT4nLCAnLW9tYWUnLCAnPG91dGZpbGUubWFlPic=

>  <r_epik_Ionization_Penalty>  (23) 
0.1359

>  <r_epik_Ionization_Penalty_Charging>  (23) 
0.1358

>  <r_epik_Ionization_Penalty_Neutral>  (23) 
0.0001

>  <r_epik_State_Penalty>  (23) 
0.1315

>  <r_epik_Charging_Adjusted_Penalty>  (23) 
0.267343394656415

>  <i_epik_Tot_Q>  (23) 
-1

>  <i_epik_Tot_abs_Q>  (23) 
1

>  <s_epik_Chemistry_Notes>  (23) 
This compound has an imine and may undergo hydrolysis.

>  <i_f3d_flags>  (23) 
0

>  <s_lp_Force_Field>  (23) 
OPLS_2005

>  <r_lp_Energy>  (23) 
22.742329

>  <b_lp_Chiralities_Consistent>  (23) 
1

>  <s_lp_Variant>  (23) 
ZINC000003901948-1

>  <s_m_job_name>  (23) 
zinc0995

>  <s_i_glide_gridfile>  (23) 
zincglide

>  <i_i_glide_lignum>  (23) 
4584

>  <i_i_glide_rotatable_bonds>  (23) 
4

>  <r_i_docking_score>  (23) 
-6.27496649734171

>  <r_i_glide_ligand_efficiency>  (23) 
-0.330261394596932

>  <r_i_glide_ligand_efficiency_sa>  (23) 
-0.881270048986713

>  <r_i_glide_ligand_efficiency_ln>  (23) 
-1.59083878099891

>  <r_i_glide_gscore>  (23) 
-6.40646649734171

>  <r_i_glide_lipo>  (23) 
-1.33632576216451

>  <r_i_glide_hbond>  (23) 
-0.310380396586207

>  <r_i_glide_metal>  (23) 
0

>  <r_i_glide_rewards>  (23) 
-2.18194512560296

>  <r_i_glide_evdw>  (23) 
-29.4688262939453

>  <r_i_glide_ecoul>  (23) 
-10.7334184646606

>  <r_i_glide_erotb>  (23) 
0.563468981222964

>  <r_i_glide_esite>  (23) 
-0.0578301098146403

>  <r_i_glide_emodel>  (23) 
-57.0405003419764

>  <r_i_glide_energy>  (23) 
-40.202244758606

>  <r_i_glide_einternal>  (23) 
2.85146260261536

>  <i_i_glide_confnum>  (23) 
4

>  <i_i_glide_posenum>  (23) 
55

>  <r_i_glide_eff_state_penalty>  (23) 
0.1315

>  <s_m_subgroup_title>  (23) 
0995dock_pv

>  <s_m_subgroupid>  (23) 
0995dock_pv

>  <b_m_subgroup_collapsed>  (23) 
0

>  <class>  (23) 
7

>  <isCentroid>  (23) 
flase

$$$$
ZINC000004002946
     RDKit          3D

 23 24  0  0  1  0  0  0  0  0999 V2000
    5.5236   13.9271  -22.2173 N   0  0  0  0  0  0  0  0  0  0  0  0
    4.9476   12.9419  -22.3947 C   0  0  0  0  0  0  0  0  0  0  0  0
    4.2179   11.7003  -22.6207 C   0  0  0  0  0  0  0  0  0  0  0  0
    4.9097   10.5244  -23.0039 C   0  0  0  0  0  0  0  0  0  0  0  0
    6.2479   10.5268  -23.2871 O   0  0  0  0  0  0  0  0  0  0  0  0
    4.3238    9.3151  -23.1108 N   0  0  0  0  0  0  0  0  0  0  0  0
    3.0033    9.2188  -22.8401 C   0  0  0  0  0  0  0  0  0  0  0  0
    2.4248    7.8635  -22.8229 C   0  0  0  0  0  0  0  0  0  0  0  0
    2.6631    6.9361  -23.8611 C   0  0  0  0  0  0  0  0  0  0  0  0
    2.0988    5.6455  -23.8169 C   0  0  0  0  0  0  0  0  0  0  0  0
    1.2744    5.2595  -22.7385 C   0  0  0  0  0  0  0  0  0  0  0  0
    0.6469    3.8745  -22.6975 C   0  0  0  0  0  0  0  0  0  0  0  0
    0.3358    3.5124  -21.4507 F   0  0  0  0  0  0  0  0  0  0  0  0
   -0.4705    3.8940  -23.4158 F   0  0  0  0  0  0  0  0  0  0  0  0
    1.4708    2.9620  -23.2101 F   0  0  0  0  0  0  0  0  0  0  0  0
    1.0243    6.1840  -21.7039 C   0  0  0  0  0  0  0  0  0  0  0  0
    1.5960    7.4692  -21.7483 C   0  0  0  0  0  0  0  0  0  0  0  0
    2.2146   10.3430  -22.5341 C   0  0  0  0  0  0  0  0  0  0  0  0
    2.8059   11.6236  -22.4531 C   0  0  0  0  0  0  0  0  0  0  0  0
    1.9306   12.8500  -22.1343 C   0  0  0  0  0  0  0  0  0  0  0  0
    1.9651   13.0641  -20.8181 F   0  0  0  0  0  0  0  0  0  0  0  0
    2.3560   13.9553  -22.7513 F   0  0  0  0  0  0  0  0  0  0  0  0
    0.2216   12.6283  -22.6118 Cl  0  0  0  0  0  0  0  0  0  0  0  0
  1  2  3  0
  2  3  1  0
  3  4  2  0
  3 19  1  0
  4  5  1  0
  4  6  1  0
  6  7  2  0
  7  8  1  0
  7 18  1  0
  8  9  2  0
  8 17  1  0
  9 10  1  0
 10 11  2  0
 11 12  1  0
 11 16  1  0
 12 13  1  0
 12 14  1  0
 12 15  1  0
 16 17  2  0
 18 19  2  0
 19 20  1  0
 20 21  1  0
 20 22  1  0
 20 23  1  0
M  CHG  1   5  -1
M  END
>  <s_m_entry_id>  (24) 
105

>  <s_m_entry_name>  (24) 
ZINC000004002946.1

>  <s_m_Source_Path>  (24) 
/home/bhw/schrodinger/schrodinger/0995dock

>  <s_m_Source_File>  (24) 
0995dock_pv.maegz

>  <i_m_Source_File_Index>  (24) 
105

>  <zinc_id>  (24) 
ZINC000004002946

>  <smiles>  (24) 
N#Cc1c(C(F)(F)Cl)cc(-c2ccc(C(F)(F)F)cc2)nc1O

>  <chiral flag>  (24) 
0

>  <version>  (24) 
0

>  <i_lp_mmshare_version>  (24) 
44012

>  <s_epik_input>  (24) 
TiNDYzFjKFtPSF0pbmMoW2NIXWMxQyhGKShGKUNsKS1jMltjSF1bY0hdYyhDKEYpKEYpRilbY0hdW2NIXTI=

>  <s_epik_cmdline>  (24) 
J2VwaWtfcHl0aG9uJywgJy1waCcsICc3LjAnLCAnLXRuJywgJzgnLCAnLW1hJywgJzIwMCcsICctaW1hZScsICc8aW5maWxlLm1hZT4nLCAnLW9tYWUnLCAnPG91dGZpbGUubWFlPic=

>  <r_epik_Ionization_Penalty>  (24) 
0.1152

>  <r_epik_Ionization_Penalty_Charging>  (24) 
0.0001

>  <r_epik_Ionization_Penalty_Neutral>  (24) 
0.1151

>  <r_epik_State_Penalty>  (24) 
0.1047

>  <r_epik_Charging_Adjusted_Penalty>  (24) 
0.104836889724981

>  <i_epik_Tot_Q>  (24) 
-1

>  <i_epik_Tot_abs_Q>  (24) 
1

>  <i_f3d_flags>  (24) 
0

>  <s_lp_Force_Field>  (24) 
OPLS_2005

>  <r_lp_Energy>  (24) 
13.035937

>  <b_lp_Chiralities_Consistent>  (24) 
1

>  <s_lp_Variant>  (24) 
ZINC000004002946-1

>  <s_m_job_name>  (24) 
zinc0995

>  <s_i_glide_gridfile>  (24) 
zincglide

>  <i_i_glide_lignum>  (24) 
4609

>  <i_i_glide_rotatable_bonds>  (24) 
4

>  <r_i_docking_score>  (24) 
-5.92150680978455

>  <r_i_glide_ligand_efficiency>  (24) 
-0.25745681781672

>  <r_i_glide_ligand_efficiency_sa>  (24) 
-0.732172942161388

>  <r_i_glide_ligand_efficiency_ln>  (24) 
-1.43187403986107

>  <r_i_glide_gscore>  (24) 
-6.02620680978455

>  <r_i_glide_lipo>  (24) 
-1.07905140734721

>  <r_i_glide_hbond>  (24) 
-0.149788849779035

>  <r_i_glide_metal>  (24) 
0

>  <r_i_glide_rewards>  (24) 
-2.49428042473115

>  <r_i_glide_evdw>  (24) 
-26.6888408660889

>  <r_i_glide_ecoul>  (24) 
-6.51319122314453

>  <r_i_glide_erotb>  (24) 
0.110202114281007

>  <r_i_glide_esite>  (24) 
-0.101867515432039

>  <r_i_glide_emodel>  (24) 
-47.119251527402

>  <r_i_glide_energy>  (24) 
-33.2020320892334

>  <r_i_glide_einternal>  (24) 
4.51794147491455

>  <i_i_glide_confnum>  (24) 
1

>  <i_i_glide_posenum>  (24) 
50

>  <r_i_glide_eff_state_penalty>  (24) 
0.1047

>  <s_m_subgroup_title>  (24) 
0995dock_pv

>  <s_m_subgroupid>  (24) 
0995dock_pv

>  <b_m_subgroup_collapsed>  (24) 
0

>  <class>  (24) 
7

>  <isCentroid>  (24) 
flase

$$$$
ZINC000004018117
     RDKit          3D

 20 22  0  0  1  0  0  0  0  0999 V2000
   -0.6534    4.3299  -22.1224 N   0  0  0  0  0  0  0  0  0  0  0  0
    0.3157    5.2050  -22.6091 C   0  0  0  0  0  0  0  0  0  0  0  0
    0.1950    6.6004  -22.4574 C   0  0  0  0  0  0  0  0  0  0  0  0
   -0.7864    7.3884  -21.8855 N   0  0  0  0  0  0  0  0  0  0  0  0
   -0.3117    8.6096  -22.1208 C   0  0  0  0  0  0  0  0  0  0  0  0
    0.8878    8.7088  -22.7409 N   0  0  0  0  0  0  0  0  0  0  0  0
    1.5959    9.9532  -23.2047 C   0  0  2  0  0  0  0  0  0  0  0  0
    2.9774    9.8023  -23.0009 O   0  0  0  0  0  0  0  0  0  0  0  0
    3.4918   10.8386  -22.1590 C   0  0  1  0  0  0  0  0  0  0  0  0
    4.9327   11.2374  -22.5497 C   0  0  0  0  0  0  0  0  0  0  0  0
    5.9012   10.5135  -21.8170 O   0  0  0  0  0  0  0  0  0  0  0  0
    2.4622   11.9709  -22.2818 C   0  0  1  0  0  0  0  0  0  0  0  0
    2.7237   12.7804  -23.4170 O   0  0  0  0  0  0  0  0  0  0  0  0
    1.1605   11.1896  -22.3970 C   0  0  1  0  0  0  0  0  0  0  0  0
    0.1257   11.9327  -23.0170 O   0  0  0  0  0  0  0  0  0  0  0  0
    1.2411    7.3892  -22.9968 C   0  0  0  0  0  0  0  0  0  0  0  0
    2.3289    6.8891  -23.6433 N   0  0  0  0  0  0  0  0  0  0  0  0
    2.3606    5.5365  -23.7450 C   0  0  0  0  0  0  0  0  0  0  0  0
    1.4022    4.6807  -23.2594 N   0  0  0  0  0  0  0  0  0  0  0  0
    1.5238    3.4066  -23.4170 O   0  0  0  0  0  0  0  0  0  0  0  0
  1  2  1  0
  2  3  2  0
  2 19  1  0
  3  4  1  0
  3 16  1  0
  4  5  2  0
  5  6  1  0
  7  6  1  1
  6 16  1  0
  7  8  1  0
  7 14  1  0
  8  9  1  0
  9 10  1  6
  9 12  1  0
 10 11  1  0
 12 13  1  6
 12 14  1  0
 14 15  1  6
 16 17  2  0
 17 18  1  0
 18 19  2  0
 19 20  1  0
M  CHG  2  19   1  20  -1
M  END
>  <s_m_entry_id>  (25) 
103

>  <s_m_entry_name>  (25) 
ZINC000004018117.1

>  <s_m_Source_Path>  (25) 
/home/bhw/schrodinger/schrodinger/0995dock

>  <s_m_Source_File>  (25) 
0995dock_pv.maegz

>  <i_m_Source_File_Index>  (25) 
103

>  <zinc_id>  (25) 
ZINC000004018117

>  <smiles>  (25) 
Nc1c2ncn([C@@H]3O[C@@H](CO)[C@@H](O)[C@H]3O)c2nc[n+]1[O-]

>  <chiral flag>  (25) 
0

>  <version>  (25) 
0

>  <i_lp_mmshare_version>  (25) 
44012

>  <s_epik_input>  (25) 
W05IMl1jMVtuK10oW08tXSlbY0hdbmMoYzEyKW4oW2NIXW4yKVtDQEBIXTNPW0NAQEhdKFtDSDJdW09IXSlbQ0BASF0oW09IXSlbQ0BIXTNbT0hd

>  <s_epik_cmdline>  (25) 
J2VwaWtfcHl0aG9uJywgJy1waCcsICc3LjAnLCAnLXRuJywgJzgnLCAnLW1hJywgJzIwMCcsICctaW1hZScsICc8aW5maWxlLm1hZT4nLCAnLW9tYWUnLCAnPG91dGZpbGUubWFlPic=

>  <r_epik_Ionization_Penalty>  (25) 
0.0016

>  <r_epik_Ionization_Penalty_Charging>  (25) 
0.0015

>  <r_epik_Ionization_Penalty_Neutral>  (25) 
0.0002

>  <r_epik_State_Penalty>  (25) 
0.0000

>  <r_epik_Charging_Adjusted_Penalty>  (25) 
0.00145789673812909

>  <i_epik_Tot_Q>  (25) 
0

>  <i_epik_Tot_abs_Q>  (25) 
2

>  <s_epik_Chemistry_Notes>  (25) 
This compound contains an acetal/aminal-like group ( X-CH(R)-Y where X, Y are N, S, or O) that may be acid/base labile, releasing an aldehyde.

>  <i_f3d_flags>  (25) 
0

>  <s_lp_Force_Field>  (25) 
OPLS_2005

>  <r_lp_Energy>  (25) 
45.134444

>  <b_lp_Chiralities_Consistent>  (25) 
1

>  <s_lp_Variant>  (25) 
ZINC000004018117-1

>  <s_m_job_name>  (25) 
zinc0995

>  <s_i_glide_gridfile>  (25) 
zincglide

>  <i_i_glide_lignum>  (25) 
4621

>  <i_i_glide_rotatable_bonds>  (25) 
5

>  <r_i_docking_score>  (25) 
-5.92344586081796

>  <r_i_glide_ligand_efficiency>  (25) 
-0.296172293040898

>  <r_i_glide_ligand_efficiency_sa>  (25) 
-0.803935288974731

>  <r_i_glide_ligand_efficiency_ln>  (25) 
-1.48244313064283

>  <r_i_glide_gscore>  (25) 
-5.92344586081796

>  <r_i_glide_lipo>  (25) 
-0.166239580337107

>  <r_i_glide_hbond>  (25) 
0

>  <r_i_glide_metal>  (25) 
0

>  <r_i_glide_rewards>  (25) 
-2.28648935758779

>  <r_i_glide_evdw>  (25) 
-12.168267250061

>  <r_i_glide_ecoul>  (25) 
-21.6480350494385

>  <r_i_glide_erotb>  (25) 
0.451407471362923

>  <r_i_glide_esite>  (25) 
-0.0665057743371633

>  <r_i_glide_emodel>  (25) 
-47.186457366806

>  <r_i_glide_energy>  (25) 
-33.8163022994995

>  <r_i_glide_einternal>  (25) 
3.26318955421448

>  <i_i_glide_confnum>  (25) 
7

>  <i_i_glide_posenum>  (25) 
199

>  <r_i_glide_eff_state_penalty>  (25) 
0

>  <r_lp_tautomer_probability>  (25) 
1

>  <s_m_subgroup_title>  (25) 
0995dock_pv

>  <s_m_subgroupid>  (25) 
0995dock_pv

>  <b_m_subgroup_collapsed>  (25) 
0

>  <class>  (25) 
1

>  <isCentroid>  (25) 
flase

$$$$
ZINC000004053425
     RDKit          3D

 20 21  0  0  1  0  0  0  0  0999 V2000
    5.1854    9.8640  -23.0141 O   0  0  0  0  0  0  0  0  0  0  0  0
    5.6021   11.0410  -23.0179 C   0  0  0  0  0  0  0  0  0  0  0  0
    6.7230   11.3128  -23.5036 O   0  0  0  0  0  0  0  0  0  0  0  0
    4.7961   12.1853  -22.4415 C   0  0  0  0  0  0  0  0  0  0  0  0
    5.5193   13.2647  -21.8777 C   0  0  0  0  0  0  0  0  0  0  0  0
    4.8689   14.4105  -21.3864 C   0  0  0  0  0  0  0  0  0  0  0  0
    3.4714   14.5055  -21.4655 C   0  0  0  0  0  0  0  0  0  0  0  0
    2.7306   13.4467  -22.0179 C   0  0  0  0  0  0  0  0  0  0  0  0
    3.3663   12.2770  -22.4871 C   0  0  0  0  0  0  0  0  0  0  0  0
    2.5198   11.2937  -23.0170 N   0  0  0  0  0  0  0  0  0  0  0  0
    2.3680    9.9932  -22.5237 C   0  0  0  0  0  0  0  0  0  0  0  0
    2.5929    9.6850  -21.1663 C   0  0  0  0  0  0  0  0  0  0  0  0
    2.4980    8.3427  -20.7579 C   0  0  0  0  0  0  0  0  0  0  0  0
    2.2165    7.3280  -21.6014 N   0  0  0  0  0  0  0  0  0  0  0  0
    1.9946    7.6273  -22.9023 C   0  0  0  0  0  0  0  0  0  0  0  0
    1.7358    6.4459  -23.8234 C   0  0  0  0  0  0  0  0  0  0  0  0
    1.5278    6.8556  -25.0743 F   0  0  0  0  0  0  0  0  0  0  0  0
    2.7883    5.6255  -23.8170 F   0  0  0  0  0  0  0  0  0  0  0  0
    0.6615    5.7736  -23.4081 F   0  0  0  0  0  0  0  0  0  0  0  0
    2.0315    8.9482  -23.4011 C   0  0  0  0  0  0  0  0  0  0  0  0
  1  2  2  0
  2  3  1  0
  2  4  1  0
  4  5  2  0
  4  9  1  0
  5  6  1  0
  6  7  2  0
  7  8  1  0
  8  9  2  0
  9 10  1  0
 10 11  1  0
 11 12  2  0
 11 20  1  0
 12 13  1  0
 13 14  2  0
 14 15  1  0
 15 16  1  0
 15 20  2  0
 16 17  1  0
 16 18  1  0
 16 19  1  0
M  CHG  1   3  -1
M  END
>  <s_m_entry_id>  (26) 
13

>  <s_m_entry_name>  (26) 
ZINC000004053425.1

>  <s_m_Source_Path>  (26) 
/home/bhw/schrodinger/schrodinger/0995dock

>  <s_m_Source_File>  (26) 
0995dock_pv.maegz

>  <i_m_Source_File_Index>  (26) 
13

>  <zinc_id>  (26) 
ZINC000004053425

>  <smiles>  (26) 
O=C(O)c1ccccc1Nc1ccnc(C(F)(F)F)c1

>  <chiral flag>  (26) 
0

>  <version>  (26) 
0

>  <i_lp_mmshare_version>  (26) 
44012

>  <s_epik_input>  (26) 
Tz1DKFtPSF0pYzFbY0hdW2NIXVtjSF1bY0hdYzFbTkhdYzJbY0hdW2NIXW5jKEMoRikoRilGKVtjSF0y

>  <s_epik_cmdline>  (26) 
J2VwaWtfcHl0aG9uJywgJy1waCcsICc3LjAnLCAnLXRuJywgJzgnLCAnLW1hJywgJzIwMCcsICctaW1hZScsICc8aW5maWxlLm1hZT4nLCAnLW9tYWUnLCAnPG91dGZpbGUubWFlPic=

>  <r_epik_Ionization_Penalty>  (26) 
0.0014

>  <r_epik_Ionization_Penalty_Charging>  (26) 
0.0013

>  <r_epik_Ionization_Penalty_Neutral>  (26) 
0.0000

>  <r_epik_State_Penalty>  (26) 
0.0009

>  <r_epik_Charging_Adjusted_Penalty>  (26) 
0.00220515027423062

>  <i_epik_Tot_Q>  (26) 
-1

>  <i_epik_Tot_abs_Q>  (26) 
1

>  <i_f3d_flags>  (26) 
0

>  <s_lp_Force_Field>  (26) 
OPLS_2005

>  <r_lp_Energy>  (26) 
20.538728

>  <b_lp_Chiralities_Consistent>  (26) 
1

>  <s_lp_Variant>  (26) 
ZINC000004053425-1

>  <s_m_job_name>  (26) 
zinc0995

>  <s_i_glide_gridfile>  (26) 
zincglide

>  <i_i_glide_lignum>  (26) 
4659

>  <i_i_glide_rotatable_bonds>  (26) 
4

>  <r_i_docking_score>  (26) 
-6.52603920437688

>  <r_i_glide_ligand_efficiency>  (26) 
-0.326301960218844

>  <r_i_glide_ligand_efficiency_sa>  (26) 
-0.885719788263021

>  <r_i_glide_ligand_efficiency_ln>  (26) 
-1.63325236967699

>  <r_i_glide_gscore>  (26) 
-6.52693920437688

>  <r_i_glide_lipo>  (26) 
-0.275976158433582

>  <r_i_glide_hbond>  (26) 
-0.392860519777677

>  <r_i_glide_metal>  (26) 
0

>  <r_i_glide_rewards>  (26) 
-2.95514014029872

>  <r_i_glide_evdw>  (26) 
-22.2115230560303

>  <r_i_glide_ecoul>  (26) 
-13.4610424041748

>  <r_i_glide_erotb>  (26) 
0.319962437909248

>  <r_i_glide_esite>  (26) 
-0.0931923103484155

>  <r_i_glide_emodel>  (26) 
-51.8130574672096

>  <r_i_glide_energy>  (26) 
-35.6725654602051

>  <r_i_glide_einternal>  (26) 
8.38791942596436

>  <i_i_glide_confnum>  (26) 
12

>  <i_i_glide_posenum>  (26) 
232

>  <r_i_glide_eff_state_penalty>  (26) 
0.0009

>  <r_lp_tautomer_probability>  (26) 
0.999999106000799

>  <s_m_subgroup_title>  (26) 
0995dock_pv

>  <s_m_subgroupid>  (26) 
0995dock_pv

>  <b_m_subgroup_collapsed>  (26) 
0

>  <class>  (26) 
7

>  <isCentroid>  (26) 
flase

$$$$
ZINC000004113452
     RDKit          3D

 14 15  0  0  1  0  0  0  0  0999 V2000
    1.0262    6.5208  -20.0746 O   0  0  0  0  0  0  0  0  0  0  0  0
    1.2420    6.4932  -21.2845 C   0  0  0  0  0  0  0  0  0  0  0  0
    0.6710    5.3676  -22.1624 C   0  0  0  0  0  0  0  0  0  0  0  0
    1.5518    5.0579  -23.4048 C   0  0  0  0  0  0  0  0  0  0  0  0
    1.9640    6.3091  -24.2170 C   0  0  0  0  0  0  0  0  0  0  0  0
    2.3728    7.4224  -23.3059 C   0  0  0  0  0  0  0  0  0  0  0  0
    3.1237    8.5134  -23.7352 N   0  0  0  0  0  0  0  0  0  0  0  0
    3.3458    9.4143  -22.7666 C   0  0  0  0  0  0  0  0  0  0  0  0
    3.9519   10.5825  -23.0170 N   0  0  0  0  0  0  0  0  0  0  0  0
    5.1789   10.8142  -22.7417 N   0  0  0  0  0  0  0  0  0  0  0  0
    5.9237   10.0939  -21.8170 O   0  0  0  0  0  0  0  0  0  0  0  0
    5.9237   11.8351  -23.4170 O   0  0  0  0  0  0  0  0  0  0  0  0
    2.6662    8.9104  -21.2119 S   0  0  0  0  0  0  0  0  0  0  0  0
    2.0367    7.4851  -21.9870 C   0  0  0  0  0  0  0  0  0  0  0  0
  1  2  2  0
  2  3  1  0
  2 14  1  0
  3  4  1  0
  4  5  1  0
  5  6  1  0
  6  7  1  0
  6 14  2  0
  7  8  2  0
  8  9  1  0
  8 13  1  0
  9 10  1  0
 10 11  2  0
 10 12  1  0
 13 14  1  0
M  CHG  3   9  -1  10   1  12  -1
M  END
>  <s_m_entry_id>  (27) 
57

>  <s_m_entry_name>  (27) 
ZINC000004113452.1

>  <s_m_Source_Path>  (27) 
/home/bhw/schrodinger/schrodinger/0995dock

>  <s_m_Source_File>  (27) 
0995dock_pv.maegz

>  <i_m_Source_File_Index>  (27) 
57

>  <zinc_id>  (27) 
ZINC000004113452

>  <smiles>  (27) 
O=C1CCCc2nc(N[N+](=O)[O-])sc21

>  <chiral flag>  (27) 
0

>  <version>  (27) 
0

>  <i_lp_mmshare_version>  (27) 
44012

>  <s_epik_input>  (27) 
W0NIMl0xW0NIMl1bQ0gyXUMoPU8pYyhjMTIpc2MobjIpW05IXVtOK10oPU8pW08tXQ==

>  <s_epik_cmdline>  (27) 
J2VwaWtfcHl0aG9uJywgJy1waCcsICc3LjAnLCAnLXRuJywgJzgnLCAnLW1hJywgJzIwMCcsICctaW1hZScsICc8aW5maWxlLm1hZT4nLCAnLW9tYWUnLCAnPG91dGZpbGUubWFlPic=

>  <r_epik_Ionization_Penalty>  (27) 
0.1295

>  <r_epik_Ionization_Penalty_Charging>  (27) 
0.0044

>  <r_epik_Ionization_Penalty_Neutral>  (27) 
0.1251

>  <r_epik_State_Penalty>  (27) 
0.1146

>  <r_epik_Charging_Adjusted_Penalty>  (27) 
0.11896185880356

>  <i_epik_Tot_Q>  (27) 
-1

>  <i_epik_Tot_abs_Q>  (27) 
3

>  <i_f3d_flags>  (27) 
0

>  <s_lp_Force_Field>  (27) 
OPLS_2005

>  <r_lp_Energy>  (27) 
8.171614

>  <b_lp_Chiralities_Consistent>  (27) 
1

>  <s_lp_Variant>  (27) 
ZINC000004113452-1

>  <s_m_job_name>  (27) 
zinc0995

>  <s_i_glide_gridfile>  (27) 
zincglide

>  <i_i_glide_lignum>  (27) 
4729

>  <i_i_glide_rotatable_bonds>  (27) 
2

>  <r_i_docking_score>  (27) 
-6.11330844290716

>  <r_i_glide_ligand_efficiency>  (27) 
-0.436664888779083

>  <r_i_glide_ligand_efficiency_sa>  (27) 
-1.05242450280204

>  <r_i_glide_ligand_efficiency_ln>  (27) 
-1.67991539818734

>  <r_i_glide_gscore>  (27) 
-6.22790844290716

>  <r_i_glide_lipo>  (27) 
-0.726872566301177

>  <r_i_glide_hbond>  (27) 
0

>  <r_i_glide_metal>  (27) 
0

>  <r_i_glide_rewards>  (27) 
-2.01533631346317

>  <r_i_glide_evdw>  (27) 
-23.0760116577148

>  <r_i_glide_ecoul>  (27) 
-14.7751779556274

>  <r_i_glide_erotb>  (27) 
0

>  <r_i_glide_esite>  (27) 
-0.115622286912955

>  <r_i_glide_emodel>  (27) 
-50.9049858089155

>  <r_i_glide_energy>  (27) 
-37.8511896133423

>  <r_i_glide_einternal>  (27) 
0.30566331744194

>  <i_i_glide_confnum>  (27) 
2

>  <i_i_glide_posenum>  (27) 
303

>  <r_i_glide_eff_state_penalty>  (27) 
0.1146

>  <r_lp_tautomer_probability>  (27) 
0.99995

>  <s_m_subgroup_title>  (27) 
0995dock_pv

>  <s_m_subgroupid>  (27) 
0995dock_pv

>  <b_m_subgroup_collapsed>  (27) 
0

>  <class>  (27) 
9

>  <isCentroid>  (27) 
flase

$$$$
ZINC000004822302
     RDKit          3D

 19 21  0  0  1  0  0  0  0  0999 V2000
   -0.4829    4.5954  -22.3231 N   0  0  0  0  0  0  0  0  0  0  0  0
    0.4649    5.4578  -22.7073 C   0  0  0  0  0  0  0  0  0  0  0  0
    1.5092    4.9761  -23.4170 N   0  0  0  0  0  0  0  0  0  0  0  0
    2.4679    5.8139  -23.8155 C   0  0  0  0  0  0  0  0  0  0  0  0
    2.5567    7.1353  -23.6370 N   0  0  0  0  0  0  0  0  0  0  0  0
    1.5017    7.6184  -22.9145 C   0  0  0  0  0  0  0  0  0  0  0  0
    0.4167    6.8446  -22.4164 C   0  0  0  0  0  0  0  0  0  0  0  0
   -0.4848    7.6543  -21.7432 N   0  0  0  0  0  0  0  0  0  0  0  0
    0.0270    8.8501  -21.8548 C   0  0  0  0  0  0  0  0  0  0  0  0
    1.2390    8.9262  -22.5176 N   0  0  0  0  0  0  0  0  0  0  0  0
    2.0074   10.1324  -22.8376 C   0  0  2  0  0  0  0  0  0  0  0  0
    3.7720    9.9167  -22.4438 S   0  0  0  0  0  0  0  0  0  0  0  0
    3.9404   11.5473  -21.6522 C   0  0  1  0  0  0  0  0  0  0  0  0
    5.3174   12.1834  -21.8920 C   0  0  0  0  0  0  0  0  0  0  0  0
    6.3248   11.3245  -21.4096 O   0  0  0  0  0  0  0  0  0  0  0  0
    2.7471   12.4014  -22.1154 C   0  0  1  0  0  0  0  0  0  0  0  0
    2.9938   12.9212  -23.4171 O   0  0  0  0  0  0  0  0  0  0  0  0
    1.5662   11.4174  -22.1033 C   0  0  1  0  0  0  0  0  0  0  0  0
    0.3844   11.9951  -22.6172 O   0  0  0  0  0  0  0  0  0  0  0  0
  1  2  1  0
  2  3  2  0
  2  7  1  0
  3  4  1  0
  4  5  2  0
  5  6  1  0
  6  7  2  0
  6 10  1  0
  7  8  1  0
  8  9  2  0
  9 10  1  0
 11 10  1  1
 11 12  1  0
 11 18  1  0
 12 13  1  0
 13 14  1  6
 13 16  1  0
 14 15  1  0
 16 17  1  6
 16 18  1  0
 18 19  1  6
M  END
>  <s_m_entry_id>  (28) 
110

>  <s_m_entry_name>  (28) 
ZINC000004822302.1

>  <s_m_Source_Path>  (28) 
/home/bhw/schrodinger/schrodinger/0995dock

>  <s_m_Source_File>  (28) 
0995dock_pv.maegz

>  <i_m_Source_File_Index>  (28) 
110

>  <zinc_id>  (28) 
ZINC000004822302

>  <smiles>  (28) 
Nc1ncnc2c1ncn2[C@@H]1S[C@@H](CO)[C@@H](O)[C@H]1O

>  <chiral flag>  (28) 
0

>  <version>  (28) 
0

>  <i_lp_mmshare_version>  (28) 
44012

>  <s_epik_input>  (28) 
bjFbY0hdbmMoW05IMl0pYyhjMTIpbltjSF1uMltDQEBIXTNTW0NAQEhdKFtDSDJdW09IXSlbQ0BASF0oW09IXSlbQ0BIXTNbT0hd

>  <s_epik_cmdline>  (28) 
J2VwaWtfcHl0aG9uJywgJy1waCcsICc3LjAnLCAnLXRuJywgJzgnLCAnLW1hJywgJzIwMCcsICctaW1hZScsICc8aW5maWxlLm1hZT4nLCAnLW9tYWUnLCAnPG91dGZpbGUubWFlPic=

>  <r_epik_Ionization_Penalty>  (28) 
0.0003

>  <r_epik_Ionization_Penalty_Charging>  (28) 
0.0000

>  <r_epik_Ionization_Penalty_Neutral>  (28) 
0.0003

>  <r_epik_State_Penalty>  (28) 
0.0000

>  <r_epik_Charging_Adjusted_Penalty>  (28) 
0

>  <i_epik_Tot_Q>  (28) 
0

>  <i_epik_Tot_abs_Q>  (28) 
0

>  <s_epik_Chemistry_Notes>  (28) 
This compound contains an acetal/aminal-like group ( X-CH(R)-Y where X, Y are N, S, or O) that may be acid/base labile, releasing an aldehyde.

>  <i_f3d_flags>  (28) 
0

>  <s_lp_Force_Field>  (28) 
OPLS_2005

>  <r_lp_Energy>  (28) 
30.57723

>  <b_lp_Chiralities_Consistent>  (28) 
1

>  <s_lp_Variant>  (28) 
ZINC000004822302-1

>  <s_m_job_name>  (28) 
zinc0995

>  <s_i_glide_gridfile>  (28) 
zincglide

>  <i_i_glide_lignum>  (28) 
5771

>  <i_i_glide_rotatable_bonds>  (28) 
5

>  <r_i_docking_score>  (28) 
-5.90258729047172

>  <r_i_glide_ligand_efficiency>  (28) 
-0.310662488972196

>  <r_i_glide_ligand_efficiency_sa>  (28) 
-0.828972296955851

>  <r_i_glide_ligand_efficiency_ln>  (28) 
-1.49643265408534

>  <r_i_glide_gscore>  (28) 
-5.90258729047172

>  <r_i_glide_lipo>  (28) 
-0.157629872014096

>  <r_i_glide_hbond>  (28) 
-0.456813854181963

>  <r_i_glide_metal>  (28) 
0

>  <r_i_glide_rewards>  (28) 
-1.85870569098818

>  <r_i_glide_evdw>  (28) 
-18.6684150695801

>  <r_i_glide_ecoul>  (28) 
-19.5930309295654

>  <r_i_glide_erotb>  (28) 
0.451221278360904

>  <r_i_glide_esite>  (28) 
-0.0082837587345758

>  <r_i_glide_emodel>  (28) 
-53.0373561209281

>  <r_i_glide_energy>  (28) 
-38.2614459991455

>  <r_i_glide_einternal>  (28) 
3.26103591918945

>  <i_i_glide_confnum>  (28) 
2

>  <i_i_glide_posenum>  (28) 
37

>  <r_i_glide_eff_state_penalty>  (28) 
0

>  <r_lp_tautomer_probability>  (28) 
1

>  <s_m_subgroup_title>  (28) 
0995dock_pv

>  <s_m_subgroupid>  (28) 
0995dock_pv

>  <b_m_subgroup_collapsed>  (28) 
0

>  <class>  (28) 
1

>  <isCentroid>  (28) 
flase

$$$$
ZINC000004822305
     RDKit          3D

 19 21  0  0  1  0  0  0  0  0999 V2000
   -0.3440    4.1076  -22.6910 N   0  0  0  0  0  0  0  0  0  0  0  0
    0.6009    5.0059  -22.9885 C   0  0  0  0  0  0  0  0  0  0  0  0
    1.7669    4.5560  -23.4943 N   0  0  0  0  0  0  0  0  0  0  0  0
    2.7235    5.4309  -23.8157 C   0  0  0  0  0  0  0  0  0  0  0  0
    2.7237    6.7585  -23.6740 N   0  0  0  0  0  0  0  0  0  0  0  0
    1.5529    7.2131  -23.1332 C   0  0  0  0  0  0  0  0  0  0  0  0
    0.4353    6.3981  -22.7934 C   0  0  0  0  0  0  0  0  0  0  0  0
   -0.6120    7.1769  -22.3355 N   0  0  0  0  0  0  0  0  0  0  0  0
   -0.1373    8.3899  -22.3913 C   0  0  0  0  0  0  0  0  0  0  0  0
    1.1846    8.5100  -22.7812 N   0  0  0  0  0  0  0  0  0  0  0  0
    1.9330    9.7705  -22.9186 C   0  0  2  0  0  0  0  0  0  0  0  0
    3.7247    9.5714  -22.6166 S   0  0  0  0  0  0  0  0  0  0  0  0
    3.8869   11.0766  -21.6136 C   0  0  1  0  0  0  0  0  0  0  0  0
    5.2154   11.8190  -21.8506 C   0  0  0  0  0  0  0  0  0  0  0  0
    6.3190   11.0453  -21.4172 O   0  0  0  0  0  0  0  0  0  0  0  0
    2.6162   11.9202  -21.8490 C   0  0  1  0  0  0  0  0  0  0  0  0
    2.7239   12.7137  -23.0170 O   0  0  0  0  0  0  0  0  0  0  0  0
    1.4545   10.9252  -21.9953 C   0  0  2  0  0  0  0  0  0  0  0  0
    1.1306   10.4644  -20.6916 O   0  0  0  0  0  0  0  0  0  0  0  0
  1  2  1  0
  2  3  2  0
  2  7  1  0
  3  4  1  0
  4  5  2  0
  5  6  1  0
  6  7  2  0
  6 10  1  0
  7  8  1  0
  8  9  2  0
  9 10  1  0
 11 10  1  1
 11 12  1  0
 11 18  1  0
 12 13  1  0
 13 14  1  6
 13 16  1  0
 14 15  1  0
 16 17  1  6
 16 18  1  0
 18 19  1  1
M  END
>  <s_m_entry_id>  (29) 
47

>  <s_m_entry_name>  (29) 
ZINC000004822305.1

>  <s_m_Source_Path>  (29) 
/home/bhw/schrodinger/schrodinger/0995dock

>  <s_m_Source_File>  (29) 
0995dock_pv.maegz

>  <i_m_Source_File_Index>  (29) 
47

>  <zinc_id>  (29) 
ZINC000004822305

>  <smiles>  (29) 
Nc1ncnc2c1ncn2[C@@H]1S[C@@H](CO)[C@@H](O)[C@@H]1O

>  <chiral flag>  (29) 
0

>  <version>  (29) 
0

>  <i_lp_mmshare_version>  (29) 
44012

>  <s_epik_input>  (29) 
bjFbY0hdbmMoW05IMl0pYyhjMTIpbltjSF1uMltDQEBIXTNTW0NAQEhdKFtDSDJdW09IXSlbQ0BASF0oW09IXSlbQ0BASF0zW09IXQ==

>  <s_epik_cmdline>  (29) 
J2VwaWtfcHl0aG9uJywgJy1waCcsICc3LjAnLCAnLXRuJywgJzgnLCAnLW1hJywgJzIwMCcsICctaW1hZScsICc8aW5maWxlLm1hZT4nLCAnLW9tYWUnLCAnPG91dGZpbGUubWFlPic=

>  <r_epik_Ionization_Penalty>  (29) 
0.0003

>  <r_epik_Ionization_Penalty_Charging>  (29) 
0.0000

>  <r_epik_Ionization_Penalty_Neutral>  (29) 
0.0003

>  <r_epik_State_Penalty>  (29) 
0.0000

>  <r_epik_Charging_Adjusted_Penalty>  (29) 
0

>  <i_epik_Tot_Q>  (29) 
0

>  <i_epik_Tot_abs_Q>  (29) 
0

>  <s_epik_Chemistry_Notes>  (29) 
This compound contains an acetal/aminal-like group ( X-CH(R)-Y where X, Y are N, S, or O) that may be acid/base labile, releasing an aldehyde.

>  <i_f3d_flags>  (29) 
0

>  <s_lp_Force_Field>  (29) 
OPLS_2005

>  <r_lp_Energy>  (29) 
24.552005

>  <b_lp_Chiralities_Consistent>  (29) 
1

>  <s_lp_Variant>  (29) 
ZINC000004822305-1

>  <s_m_job_name>  (29) 
zinc0995

>  <s_i_glide_gridfile>  (29) 
zincglide

>  <i_i_glide_lignum>  (29) 
5773

>  <i_i_glide_rotatable_bonds>  (29) 
5

>  <r_i_docking_score>  (29) 
-6.16195724920816

>  <r_i_glide_ligand_efficiency>  (29) 
-0.324313539432008

>  <r_i_glide_ligand_efficiency_sa>  (29) 
-0.865398782473849

>  <r_i_glide_ligand_efficiency_ln>  (29) 
-1.56218850938095

>  <r_i_glide_gscore>  (29) 
-6.16195724920816

>  <r_i_glide_lipo>  (29) 
-0.265251193693354

>  <r_i_glide_hbond>  (29) 
-0.986431059115287

>  <r_i_glide_metal>  (29) 
0

>  <r_i_glide_rewards>  (29) 
-1.89241902781612

>  <r_i_glide_evdw>  (29) 
-21.8694095611572

>  <r_i_glide_ecoul>  (29) 
-15.7906341552734

>  <r_i_glide_erotb>  (29) 
0.451221278360904

>  <r_i_glide_esite>  (29) 
-0.00701164559542408

>  <r_i_glide_emodel>  (29) 
-51.1689040079349

>  <r_i_glide_energy>  (29) 
-37.6600437164307

>  <r_i_glide_einternal>  (29) 
4.83460760116577

>  <i_i_glide_confnum>  (29) 
2

>  <i_i_glide_posenum>  (29) 
272

>  <r_i_glide_eff_state_penalty>  (29) 
0

>  <r_lp_tautomer_probability>  (29) 
1

>  <s_m_subgroup_title>  (29) 
0995dock_pv

>  <s_m_subgroupid>  (29) 
0995dock_pv

>  <b_m_subgroup_collapsed>  (29) 
0

>  <class>  (29) 
1

>  <isCentroid>  (29) 
flase

$$$$
ZINC000004824907
     RDKit          3D

 26 28  0  0  1  0  0  0  0  0999 V2000
    1.5801    8.0833  -25.4228 C   0  0  0  0  0  0  0  0  0  0  0  0
    2.5525    7.1928  -24.6453 C   0  0  0  0  0  0  0  0  0  0  0  0
    1.9082    6.4760  -23.4662 C   0  0  0  0  0  0  0  0  0  0  0  0
    1.5148    5.1322  -23.6288 C   0  0  0  0  0  0  0  0  0  0  0  0
    0.9216    4.4282  -22.5674 C   0  0  0  0  0  0  0  0  0  0  0  0
    0.7236    5.0617  -21.3277 C   0  0  0  0  0  0  0  0  0  0  0  0
    1.1181    6.4032  -21.1388 C   0  0  0  0  0  0  0  0  0  0  0  0
    0.9108    7.0332  -19.7684 C   0  0  0  0  0  0  0  0  0  0  0  0
    2.0778    6.7385  -18.8145 C   0  0  0  0  0  0  0  0  0  0  0  0
    1.7119    7.1146  -22.2143 C   0  0  0  0  0  0  0  0  0  0  0  0
    2.0813    8.4717  -22.0603 N   0  0  0  0  0  0  0  0  0  0  0  0
    3.3145    8.8805  -21.7317 C   0  0  0  0  0  0  0  0  0  0  0  0
    4.2245    8.1121  -21.4173 O   0  0  0  0  0  0  0  0  0  0  0  0
    3.5927   10.3751  -21.8080 C   0  0  0  0  0  0  0  0  0  0  0  0
    4.4403   10.5487  -22.9333 O   0  0  0  0  0  0  0  0  0  0  0  0
    5.4172   11.4683  -23.0052 C   0  0  0  0  0  0  0  0  0  0  0  0
    6.3241   11.3132  -23.8170 O   0  0  0  0  0  0  0  0  0  0  0  0
    5.3236   12.6266  -22.1236 C   0  0  0  0  0  0  0  0  0  0  0  0
    6.3237   12.9997  -21.3547 N   0  0  0  0  0  0  0  0  0  0  0  0
    5.9244   14.1288  -20.7156 N   0  0  0  0  0  0  0  0  0  0  0  0
    4.6555   14.5370  -21.0660 C   0  0  0  0  0  0  0  0  0  0  0  0
    3.8497   15.6247  -20.6927 C   0  0  0  0  0  0  0  0  0  0  0  0
    2.5794   15.7666  -21.2795 C   0  0  0  0  0  0  0  0  0  0  0  0
    2.1347   14.8237  -22.2286 C   0  0  0  0  0  0  0  0  0  0  0  0
    2.9499   13.7327  -22.5915 C   0  0  0  0  0  0  0  0  0  0  0  0
    4.2313   13.5598  -22.0094 C   0  0  0  0  0  0  0  0  0  0  0  0
  1  2  1  0
  2  3  1  0
  3  4  2  0
  3 10  1  0
  4  5  1  0
  5  6  2  0
  6  7  1  0
  7  8  1  0
  7 10  2  0
  8  9  1  0
 10 11  1  0
 11 12  1  0
 12 13  2  0
 12 14  1  0
 14 15  1  0
 15 16  1  0
 16 17  2  0
 16 18  1  0
 18 19  2  0
 18 26  1  0
 19 20  1  0
 20 21  1  0
 21 22  1  0
 21 26  2  0
 22 23  2  0
 23 24  1  0
 24 25  2  0
 25 26  1  0
M  END
>  <s_m_entry_id>  (30) 
111

>  <s_m_entry_name>  (30) 
ZINC000004824907.1

>  <s_m_Source_Path>  (30) 
/home/bhw/schrodinger/schrodinger/0995dock

>  <s_m_Source_File>  (30) 
0995dock_pv.maegz

>  <i_m_Source_File_Index>  (30) 
111

>  <zinc_id>  (30) 
ZINC000004824907

>  <smiles>  (30) 
CCc1cccc(CC)c1NC(=O)COC(=O)c1n[nH]c2ccccc12

>  <chiral flag>  (30) 
0

>  <version>  (30) 
0

>  <i_lp_mmshare_version>  (30) 
44012

>  <s_epik_input>  (30) 
W0NIM11bQ0gyXWMxW2NIXVtjSF1bY0hdYyhbQ0gyXVtDSDNdKWMxW05IXUMoPU8pW0NIMl1PQyg9TyljKG5bbkhdMiljKGMyMylbY0hdW2NIXVtjSF1bY0hdMw==

>  <s_epik_cmdline>  (30) 
J2VwaWtfcHl0aG9uJywgJy1waCcsICc3LjAnLCAnLXRuJywgJzgnLCAnLW1hJywgJzIwMCcsICctaW1hZScsICc8aW5maWxlLm1hZT4nLCAnLW9tYWUnLCAnPG91dGZpbGUubWFlPic=

>  <r_epik_Ionization_Penalty>  (30) 
0.0001

>  <r_epik_Ionization_Penalty_Charging>  (30) 
0.0000

>  <r_epik_Ionization_Penalty_Neutral>  (30) 
0.0001

>  <r_epik_State_Penalty>  (30) 
0.0000

>  <r_epik_Charging_Adjusted_Penalty>  (30) 
0

>  <i_epik_Tot_Q>  (30) 
0

>  <i_epik_Tot_abs_Q>  (30) 
0

>  <s_epik_Chemistry_Notes>  (30) 
This compound has an ester and may undergo hydrolysis at high or low pH.

>  <i_f3d_flags>  (30) 
0

>  <s_lp_Force_Field>  (30) 
OPLS_2005

>  <r_lp_Energy>  (30) 
23.498798

>  <b_lp_Chiralities_Consistent>  (30) 
1

>  <s_lp_Variant>  (30) 
ZINC000004824907-1

>  <s_m_job_name>  (30) 
zinc0995

>  <s_i_glide_gridfile>  (30) 
zincglide

>  <i_i_glide_lignum>  (30) 
5810

>  <i_i_glide_rotatable_bonds>  (30) 
8

>  <r_i_docking_score>  (30) 
-5.89956914433982

>  <r_i_glide_ligand_efficiency>  (30) 
-0.226906505551532

>  <r_i_glide_ligand_efficiency_sa>  (30) 
-0.672209629862427

>  <r_i_glide_ligand_efficiency_ln>  (30) 
-1.38549445548293

>  <r_i_glide_gscore>  (30) 
-5.89956914433982

>  <r_i_glide_lipo>  (30) 
-1.46411551529777

>  <r_i_glide_hbond>  (30) 
-0.504146262754398

>  <r_i_glide_metal>  (30) 
0

>  <r_i_glide_rewards>  (30) 
-1.07643706214876

>  <r_i_glide_evdw>  (30) 
-38.379264831543

>  <r_i_glide_ecoul>  (30) 
-10.822211265564

>  <r_i_glide_erotb>  (30) 
0.772280176000551

>  <r_i_glide_esite>  (30) 
-0.0848555487277047

>  <r_i_glide_emodel>  (30) 
-63.1967596472924

>  <r_i_glide_energy>  (30) 
-49.2014760971069

>  <r_i_glide_einternal>  (30) 
11.1680040359497

>  <i_i_glide_confnum>  (30) 
78

>  <i_i_glide_posenum>  (30) 
131

>  <r_i_glide_eff_state_penalty>  (30) 
0

>  <r_lp_tautomer_probability>  (30) 
1

>  <s_m_subgroup_title>  (30) 
0995dock_pv

>  <s_m_subgroupid>  (30) 
0995dock_pv

>  <b_m_subgroup_collapsed>  (30) 
0

>  <class>  (30) 
2

>  <isCentroid>  (30) 
flase

$$$$
ZINC000005177667
     RDKit          3D

 20 20  0  0  1  0  0  0  0  0999 V2000
    4.2889   12.5386  -21.5070 C   0  0  0  0  0  0  0  0  0  0  0  0
    4.3087   11.4064  -22.5452 C   0  0  2  0  0  0  0  0  0  0  0  0
    3.5727   10.2619  -21.9980 N   0  0  0  0  0  0  0  0  0  0  0  0
    3.2712    9.1319  -22.6561 C   0  0  0  0  0  0  0  0  0  0  0  0
    3.6107    8.9135  -23.8169 O   0  0  0  0  0  0  0  0  0  0  0  0
    2.5603    8.2848  -21.8925 N   0  0  0  0  0  0  0  0  0  0  0  0
    1.9794    7.0323  -22.2418 C   0  0  0  0  0  0  0  0  0  0  0  0
    2.2917    6.3037  -23.4160 C   0  0  0  0  0  0  0  0  0  0  0  0
    1.6767    5.0629  -23.6637 C   0  0  0  0  0  0  0  0  0  0  0  0
    0.7453    4.5174  -22.7609 C   0  0  0  0  0  0  0  0  0  0  0  0
    0.1893    3.3016  -23.1000 O   0  0  0  0  0  0  0  0  0  0  0  0
   -0.8431    2.7818  -22.3827 C   0  0  0  0  0  0  0  0  0  0  0  0
   -0.4682    2.4504  -21.1217 F   0  0  0  0  0  0  0  0  0  0  0  0
   -1.9017    3.6285  -22.3337 F   0  0  0  0  0  0  0  0  0  0  0  0
   -1.2792    1.6467  -22.9777 F   0  0  0  0  0  0  0  0  0  0  0  0
    0.4442    5.2405  -21.5809 C   0  0  0  0  0  0  0  0  0  0  0  0
    1.0582    6.4822  -21.3277 C   0  0  0  0  0  0  0  0  0  0  0  0
    5.7676   11.0663  -22.8956 C   0  0  0  0  0  0  0  0  0  0  0  0
    6.3237   10.1786  -22.2171 O   0  0  0  0  0  0  0  0  0  0  0  0
    6.3221   11.7116  -23.8163 O   0  0  0  0  0  0  0  0  0  0  0  0
  2  1  1  1
  2  3  1  0
  2 18  1  0
  3  4  1  0
  4  5  2  0
  4  6  1  0
  6  7  1  0
  7  8  2  0
  7 17  1  0
  8  9  1  0
  9 10  2  0
 10 11  1  0
 10 16  1  0
 11 12  1  0
 12 13  1  0
 12 14  1  0
 12 15  1  0
 16 17  2  0
 18 19  2  0
 18 20  1  0
M  CHG  1  20  -1
M  END
>  <s_m_entry_id>  (31) 
24

>  <s_m_entry_name>  (31) 
ZINC000005177667.1

>  <s_m_Source_Path>  (31) 
/home/bhw/schrodinger/schrodinger/0995dock

>  <s_m_Source_File>  (31) 
0995dock_pv.maegz

>  <i_m_Source_File_Index>  (31) 
24

>  <zinc_id>  (31) 
ZINC000005177667

>  <smiles>  (31) 
C[C@H](NC(=O)Nc1ccc(OC(F)(F)F)cc1)C(=O)O

>  <chiral flag>  (31) 
0

>  <version>  (31) 
0

>  <i_lp_mmshare_version>  (31) 
44012

>  <s_epik_input>  (31) 
Tz1DKFtPSF0pW0NASF0oW0NIM10pW05IXUMoPU8pW05IXWMxW2NIXVtjSF1jKE9DKEYpKEYpRilbY0hdW2NIXTE=

>  <s_epik_cmdline>  (31) 
J2VwaWtfcHl0aG9uJywgJy1waCcsICc3LjAnLCAnLXRuJywgJzgnLCAnLW1hJywgJzIwMCcsICctaW1hZScsICc8aW5maWxlLm1hZT4nLCAnLW9tYWUnLCAnPG91dGZpbGUubWFlPic=

>  <r_epik_Ionization_Penalty>  (31) 
0.0004

>  <r_epik_Ionization_Penalty_Charging>  (31) 
0.0004

>  <r_epik_Ionization_Penalty_Neutral>  (31) 
0.0000

>  <r_epik_State_Penalty>  (31) 
0.0002

>  <r_epik_Charging_Adjusted_Penalty>  (31) 
0.000582946234922457

>  <i_epik_Tot_Q>  (31) 
-1

>  <i_epik_Tot_abs_Q>  (31) 
1

>  <i_f3d_flags>  (31) 
0

>  <s_lp_Force_Field>  (31) 
OPLS_2005

>  <r_lp_Energy>  (31) 
8.165252

>  <b_lp_Chiralities_Consistent>  (31) 
1

>  <s_lp_Variant>  (31) 
ZINC000005177667-1

>  <s_m_job_name>  (31) 
zinc0995

>  <s_i_glide_gridfile>  (31) 
zincglide

>  <i_i_glide_lignum>  (31) 
6379

>  <i_i_glide_rotatable_bonds>  (31) 
7

>  <r_i_docking_score>  (31) 
-6.36514182163493

>  <r_i_glide_ligand_efficiency>  (31) 
-0.318257091081747

>  <r_i_glide_ligand_efficiency_sa>  (31) 
-0.863882653775889

>  <r_i_glide_ligand_efficiency_ln>  (31) 
-1.59298506152753

>  <r_i_glide_gscore>  (31) 
-6.36534182163493

>  <r_i_glide_lipo>  (31) 
-0.998882492310012

>  <r_i_glide_hbond>  (31) 
-0.485940273660294

>  <r_i_glide_metal>  (31) 
0

>  <r_i_glide_rewards>  (31) 
-2.46474029939647

>  <r_i_glide_evdw>  (31) 
-22.5365200042725

>  <r_i_glide_ecoul>  (31) 
-13.2972459793091

>  <r_i_glide_erotb>  (31) 
0.752723202842324

>  <r_i_glide_esite>  (31) 
-0.0470890620004992

>  <r_i_glide_emodel>  (31) 
-56.3037971771999

>  <r_i_glide_energy>  (31) 
-35.8337659835815

>  <r_i_glide_einternal>  (31) 
1.26257348060608

>  <i_i_glide_confnum>  (31) 
9

>  <i_i_glide_posenum>  (31) 
249

>  <r_i_glide_eff_state_penalty>  (31) 
0.0002

>  <r_lp_tautomer_probability>  (31) 
1

>  <s_m_subgroup_title>  (31) 
0995dock_pv

>  <s_m_subgroupid>  (31) 
0995dock_pv

>  <b_m_subgroup_collapsed>  (31) 
0

>  <class>  (31) 
8

>  <isCentroid>  (31) 
flase

$$$$
ZINC000005671336
     RDKit          3D

 22 23  0  0  1  0  0  0  0  0999 V2000
    4.7236    8.1789  -21.8170 O   0  0  0  0  0  0  0  0  0  0  0  0
    4.6226    9.3923  -21.9928 C   0  0  0  0  0  0  0  0  0  0  0  0
    5.6937   10.1943  -22.2668 N   0  0  0  0  0  0  0  0  0  0  0  0
    5.6465   11.5333  -22.2064 C   0  0  0  0  0  0  0  0  0  0  0  0
    5.8187   12.1136  -21.0170 N   0  0  0  0  0  0  0  0  0  0  0  0
    5.7091   13.4148  -21.3032 C   0  0  0  0  0  0  0  0  0  0  0  0
    5.5241   13.6588  -22.6013 N   0  0  0  0  0  0  0  0  0  0  0  0
    5.5232   12.4086  -23.2041 N   0  0  0  0  0  0  0  0  0  0  0  0
    3.2033   10.0560  -21.8889 C   0  0  0  0  0  0  0  0  0  0  0  0
    3.2240   10.9557  -20.8740 F   0  0  0  0  0  0  0  0  0  0  0  0
    2.9199   10.7528  -23.0170 F   0  0  0  0  0  0  0  0  0  0  0  0
    2.1983    9.1637  -21.6115 O   0  0  0  0  0  0  0  0  0  0  0  0
    1.9544    8.0361  -22.3713 C   0  0  0  0  0  0  0  0  0  0  0  0
    2.3249    7.9013  -23.7295 C   0  0  0  0  0  0  0  0  0  0  0  0
    2.1217    6.6812  -24.3955 C   0  0  0  0  0  0  0  0  0  0  0  0
    1.5195    5.5965  -23.7352 C   0  0  0  0  0  0  0  0  0  0  0  0
    1.0972    5.7325  -22.3978 C   0  0  0  0  0  0  0  0  0  0  0  0
    0.3954    4.5836  -21.6904 C   0  0  0  0  0  0  0  0  0  0  0  0
    0.7255    3.4092  -22.2279 F   0  0  0  0  0  0  0  0  0  0  0  0
    0.7205    4.5624  -20.3977 F   0  0  0  0  0  0  0  0  0  0  0  0
   -0.9223    4.7468  -21.7985 F   0  0  0  0  0  0  0  0  0  0  0  0
    1.3185    6.9549  -21.7270 C   0  0  0  0  0  0  0  0  0  0  0  0
  1  2  2  0
  2  3  1  0
  2  9  1  0
  3  4  1  0
  4  5  1  0
  4  8  2  0
  5  6  1  0
  6  7  2  0
  7  8  1  0
  9 10  1  0
  9 11  1  0
  9 12  1  0
 12 13  1  0
 13 14  2  0
 13 22  1  0
 14 15  1  0
 15 16  2  0
 16 17  1  0
 17 18  1  0
 17 22  2  0
 18 19  1  0
 18 20  1  0
 18 21  1  0
M  CHG  1   3  -1
M  END
>  <s_m_entry_id>  (32) 
11

>  <s_m_entry_name>  (32) 
ZINC000005671336.1

>  <s_m_Source_Path>  (32) 
/home/bhw/schrodinger/schrodinger/0995dock

>  <s_m_Source_File>  (32) 
0995dock_pv.maegz

>  <i_m_Source_File_Index>  (32) 
11

>  <zinc_id>  (32) 
ZINC000005671336

>  <smiles>  (32) 
O=C(Nc1nc[nH]n1)C(F)(F)Oc1cccc(C(F)(F)F)c1

>  <chiral flag>  (32) 
0

>  <version>  (32) 
0

>  <i_lp_mmshare_version>  (32) 
44012

>  <s_epik_input>  (32) 
bjFbbkhdW2NIXW5jMVtOSF1DKD1PKUMoRikoRilPYzJbY0hdW2NIXVtjSF1jKEMoRikoRilGKVtjSF0y

>  <s_epik_cmdline>  (32) 
J2VwaWtfcHl0aG9uJywgJy1waCcsICc3LjAnLCAnLXRuJywgJzgnLCAnLW1hJywgJzIwMCcsICctaW1hZScsICc8aW5maWxlLm1hZT4nLCAnLW9tYWUnLCAnPG91dGZpbGUubWFlPic=

>  <r_epik_Ionization_Penalty>  (32) 
0.0261

>  <r_epik_Ionization_Penalty_Charging>  (32) 
0.0117

>  <r_epik_Ionization_Penalty_Neutral>  (32) 
0.0145

>  <r_epik_State_Penalty>  (32) 
0.0214

>  <r_epik_Charging_Adjusted_Penalty>  (32) 
0.0331049932676503

>  <i_epik_Tot_Q>  (32) 
-1

>  <i_epik_Tot_abs_Q>  (32) 
1

>  <i_f3d_flags>  (32) 
0

>  <s_lp_Force_Field>  (32) 
OPLS_2005

>  <r_lp_Energy>  (32) 
12.571235

>  <b_lp_Chiralities_Consistent>  (32) 
1

>  <s_lp_Variant>  (32) 
ZINC000005671336-1

>  <s_m_job_name>  (32) 
zinc0995

>  <s_i_glide_gridfile>  (32) 
zincglide

>  <i_i_glide_lignum>  (32) 
6899

>  <i_i_glide_rotatable_bonds>  (32) 
6

>  <r_i_docking_score>  (32) 
-6.56139711812332

>  <r_i_glide_ligand_efficiency>  (32) 
-0.29824532355106

>  <r_i_glide_ligand_efficiency_sa>  (32) 
-0.835695125913055

>  <r_i_glide_ligand_efficiency_ln>  (32) 
-1.60384478844435

>  <r_i_glide_gscore>  (32) 
-6.58279711812332

>  <r_i_glide_lipo>  (32) 
-0.873893815749886

>  <r_i_glide_hbond>  (32) 
-0.695882440860597

>  <r_i_glide_metal>  (32) 
0

>  <r_i_glide_rewards>  (32) 
-1.78118166563616

>  <r_i_glide_evdw>  (32) 
-24.01047706604

>  <r_i_glide_ecoul>  (32) 
-15.6204204559326

>  <r_i_glide_erotb>  (32) 
0.724440629009403

>  <r_i_glide_esite>  (32) 
-0.412692903194181

>  <r_i_glide_emodel>  (32) 
-56.0559883617808

>  <r_i_glide_energy>  (32) 
-39.6308975219727

>  <r_i_glide_einternal>  (32) 
7.44366931915283

>  <i_i_glide_confnum>  (32) 
45

>  <i_i_glide_posenum>  (32) 
329

>  <r_i_glide_eff_state_penalty>  (32) 
0.0214

>  <r_lp_tautomer_probability>  (32) 
1

>  <s_m_subgroup_title>  (32) 
0995dock_pv

>  <s_m_subgroupid>  (32) 
0995dock_pv

>  <b_m_subgroup_collapsed>  (32) 
0

>  <class>  (32) 
7

>  <isCentroid>  (32) 
flase

$$$$
ZINC000005807321
     RDKit          3D

 19 20  0  0  1  0  0  0  0  0999 V2000
    2.7205    7.3425  -24.9649 C   0  0  0  0  0  0  0  0  0  0  0  0
    2.2074    7.5946  -23.2460 S   0  0  0  0  0  0  0  0  0  0  0  0
    3.2029    8.9865  -22.6841 C   0  0  0  0  0  0  0  0  0  0  0  0
    2.8005    9.5711  -21.6230 N   0  0  0  0  0  0  0  0  0  0  0  0
    3.4915   10.7064  -21.1830 C   0  0  0  0  0  0  0  0  0  0  0  0
    3.0189   11.3571  -20.0957 N   0  0  0  0  0  0  0  0  0  0  0  0
    3.6962   12.4621  -19.7142 C   0  0  0  0  0  0  0  0  0  0  0  0
    4.8388   12.9139  -20.4131 C   0  0  0  0  0  0  0  0  0  0  0  0
    5.5559   14.1787  -19.9874 C   0  0  1  0  0  0  0  0  0  0  0  0
    6.9540   14.1136  -20.2171 O   0  0  0  0  0  0  0  0  0  0  0  0
    4.9829   15.4697  -20.6371 C   0  0  2  0  0  0  0  0  0  0  0  0
    3.9236   15.9512  -19.8260 O   0  0  0  0  0  0  0  0  0  0  0  0
    4.4328   15.2821  -22.0654 C   0  0  0  0  0  0  0  0  0  0  0  0
    4.0949   16.5355  -22.6167 O   0  0  0  0  0  0  0  0  0  0  0  0
    5.3132   12.2724  -21.5044 N   0  0  0  0  0  0  0  0  0  0  0  0
    4.6394   11.1661  -21.8800 C   0  0  0  0  0  0  0  0  0  0  0  0
    5.1163   10.3957  -23.0772 C   0  0  0  0  0  0  0  0  0  0  0  0
    6.1452   10.7531  -23.6585 O   0  0  0  0  0  0  0  0  0  0  0  0
    4.3237    9.3362  -23.4169 N   0  0  0  0  0  0  0  0  0  0  0  0
  1  2  1  0
  2  3  1  0
  3  4  2  0
  3 19  1  0
  4  5  1  0
  5  6  2  0
  5 16  1  0
  6  7  1  0
  7  8  2  0
  8  9  1  0
  8 15  1  0
  9 10  1  6
  9 11  1  0
 11 12  1  1
 11 13  1  0
 13 14  1  0
 15 16  2  0
 16 17  1  0
 17 18  2  0
 17 19  1  0
M  CHG  1  19  -1
M  END
>  <s_m_entry_id>  (33) 
68

>  <s_m_entry_name>  (33) 
ZINC000005807321.1

>  <s_m_Source_Path>  (33) 
/home/bhw/schrodinger/schrodinger/0995dock

>  <s_m_Source_File>  (33) 
0995dock_pv.maegz

>  <i_m_Source_File_Index>  (33) 
68

>  <zinc_id>  (33) 
ZINC000005807321

>  <smiles>  (33) 
CSc1nc2ncc([C@@H](O)[C@H](O)CO)nc2c(=O)[nH]1

>  <chiral flag>  (33) 
0

>  <version>  (33) 
0

>  <i_lp_mmshare_version>  (33) 
44012

>  <s_epik_input>  (33) 
W0NIM11TYyhuMSlbbkhdYyg9TyljKGMxMiluYyhbY0hdbjIpW0NAQEhdKFtPSF0pW0NASF0oW09IXSlbQ0gyXVtPSF0=

>  <s_epik_cmdline>  (33) 
J2VwaWtfcHl0aG9uJywgJy1waCcsICc3LjAnLCAnLXRuJywgJzgnLCAnLW1hJywgJzIwMCcsICctaW1hZScsICc8aW5maWxlLm1hZT4nLCAnLW9tYWUnLCAnPG91dGZpbGUubWFlPic=

>  <r_epik_Ionization_Penalty>  (33) 
0.0610

>  <r_epik_Ionization_Penalty_Charging>  (33) 
0.0003

>  <r_epik_Ionization_Penalty_Neutral>  (33) 
0.0607

>  <r_epik_State_Penalty>  (33) 
0.0525

>  <r_epik_Charging_Adjusted_Penalty>  (33) 
0.0528050769733255

>  <i_epik_Tot_Q>  (33) 
-1

>  <i_epik_Tot_abs_Q>  (33) 
1

>  <i_f3d_flags>  (33) 
0

>  <s_lp_Force_Field>  (33) 
OPLS_2005

>  <r_lp_Energy>  (33) 
34.01134

>  <b_lp_Chiralities_Consistent>  (33) 
1

>  <s_lp_Variant>  (33) 
ZINC000005807321-1

>  <s_m_job_name>  (33) 
zinc0995

>  <s_i_glide_gridfile>  (33) 
zincglide

>  <i_i_glide_lignum>  (33) 
7028

>  <i_i_glide_rotatable_bonds>  (33) 
7

>  <r_i_docking_score>  (33) 
-6.0567346479551

>  <r_i_glide_ligand_efficiency>  (33) 
-0.31877550778711

>  <r_i_glide_ligand_efficiency_sa>  (33) 
-0.850621089716433

>  <r_i_glide_ligand_efficiency_ln>  (33) 
-1.53551231998905

>  <r_i_glide_gscore>  (33) 
-6.1092346479551

>  <r_i_glide_lipo>  (33) 
-0.556209305973011

>  <r_i_glide_hbond>  (33) 
-0.329553455475184

>  <r_i_glide_metal>  (33) 
0

>  <r_i_glide_rewards>  (33) 
-2.00760404545454

>  <r_i_glide_evdw>  (33) 
-25.5861988067627

>  <r_i_glide_ecoul>  (33) 
-15.8537817001343

>  <r_i_glide_erotb>  (33) 
0.473849765286345

>  <r_i_glide_esite>  (33) 
-0.0323404109804262

>  <r_i_glide_emodel>  (33) 
-59.9819489057262

>  <r_i_glide_energy>  (33) 
-41.439980506897

>  <r_i_glide_einternal>  (33) 
7.11492538452148

>  <i_i_glide_confnum>  (33) 
12

>  <i_i_glide_posenum>  (33) 
185

>  <r_i_glide_eff_state_penalty>  (33) 
0.0525

>  <s_m_subgroup_title>  (33) 
0995dock_pv

>  <s_m_subgroupid>  (33) 
0995dock_pv

>  <b_m_subgroup_collapsed>  (33) 
0

>  <class>  (33) 
1

>  <isCentroid>  (33) 
flase

$$$$
ZINC000005807322
     RDKit          3D

 19 20  0  0  1  0  0  0  0  0999 V2000
    2.7116    7.3116  -24.9642 C   0  0  0  0  0  0  0  0  0  0  0  0
    2.2065    7.5423  -23.2419 S   0  0  0  0  0  0  0  0  0  0  0  0
    3.1850    8.9467  -22.6827 C   0  0  0  0  0  0  0  0  0  0  0  0
    2.7734    9.5238  -21.6210 N   0  0  0  0  0  0  0  0  0  0  0  0
    3.4389   10.6762  -21.1881 C   0  0  0  0  0  0  0  0  0  0  0  0
    2.9548   11.3229  -20.1026 N   0  0  0  0  0  0  0  0  0  0  0  0
    3.6034   12.4498  -19.7350 C   0  0  0  0  0  0  0  0  0  0  0  0
    4.7242   12.9288  -20.4508 C   0  0  0  0  0  0  0  0  0  0  0  0
    5.4384   14.2015  -20.0479 C   0  0  1  0  0  0  0  0  0  0  0  0
    6.8455   14.1135  -20.2170 O   0  0  0  0  0  0  0  0  0  0  0  0
    4.9088   15.4716  -20.7616 C   0  0  1  0  0  0  0  0  0  0  0  0
    5.1237   15.3133  -22.1488 O   0  0  0  0  0  0  0  0  0  0  0  0
    3.4196   15.7924  -20.5209 C   0  0  0  0  0  0  0  0  0  0  0  0
    3.1237   15.9680  -19.1465 O   0  0  0  0  0  0  0  0  0  0  0  0
    5.2138   12.2864  -21.5338 N   0  0  0  0  0  0  0  0  0  0  0  0
    4.5723   11.1581  -21.8930 C   0  0  0  0  0  0  0  0  0  0  0  0
    5.0750   10.3855  -23.0772 C   0  0  0  0  0  0  0  0  0  0  0  0
    6.1060   10.7514  -23.6495 O   0  0  0  0  0  0  0  0  0  0  0  0
    4.3015    9.3135  -23.4168 N   0  0  0  0  0  0  0  0  0  0  0  0
  1  2  1  0
  2  3  1  0
  3  4  2  0
  3 19  1  0
  4  5  1  0
  5  6  2  0
  5 16  1  0
  6  7  1  0
  7  8  2  0
  8  9  1  0
  8 15  1  0
  9 10  1  6
  9 11  1  0
 11 12  1  6
 11 13  1  0
 13 14  1  0
 15 16  2  0
 16 17  1  0
 17 18  2  0
 17 19  1  0
M  CHG  1  19  -1
M  END
>  <s_m_entry_id>  (34) 
65

>  <s_m_entry_name>  (34) 
ZINC000005807322.1

>  <s_m_Source_Path>  (34) 
/home/bhw/schrodinger/schrodinger/0995dock

>  <s_m_Source_File>  (34) 
0995dock_pv.maegz

>  <i_m_Source_File_Index>  (34) 
65

>  <zinc_id>  (34) 
ZINC000005807322

>  <smiles>  (34) 
CSc1nc2ncc([C@@H](O)[C@@H](O)CO)nc2c(=O)[nH]1

>  <chiral flag>  (34) 
0

>  <version>  (34) 
0

>  <i_lp_mmshare_version>  (34) 
44012

>  <s_epik_input>  (34) 
W0NIM11TYyhuMSlbbkhdYyg9TyljKGMxMiluYyhbY0hdbjIpW0NAQEhdKFtPSF0pW0NAQEhdKFtPSF0pW0NIMl1bT0hd

>  <s_epik_cmdline>  (34) 
J2VwaWtfcHl0aG9uJywgJy1waCcsICc3LjAnLCAnLXRuJywgJzgnLCAnLW1hJywgJzIwMCcsICctaW1hZScsICc8aW5maWxlLm1hZT4nLCAnLW9tYWUnLCAnPG91dGZpbGUubWFlPic=

>  <r_epik_Ionization_Penalty>  (34) 
0.0610

>  <r_epik_Ionization_Penalty_Charging>  (34) 
0.0003

>  <r_epik_Ionization_Penalty_Neutral>  (34) 
0.0607

>  <r_epik_State_Penalty>  (34) 
0.0525

>  <r_epik_Charging_Adjusted_Penalty>  (34) 
0.0528050769733255

>  <i_epik_Tot_Q>  (34) 
-1

>  <i_epik_Tot_abs_Q>  (34) 
1

>  <i_f3d_flags>  (34) 
0

>  <s_lp_Force_Field>  (34) 
OPLS_2005

>  <r_lp_Energy>  (34) 
27.396314

>  <b_lp_Chiralities_Consistent>  (34) 
1

>  <s_lp_Variant>  (34) 
ZINC000005807322-1

>  <s_m_job_name>  (34) 
zinc0995

>  <s_i_glide_gridfile>  (34) 
zincglide

>  <i_i_glide_lignum>  (34) 
7030

>  <i_i_glide_rotatable_bonds>  (34) 
7

>  <r_i_docking_score>  (34) 
-6.07393328896835

>  <r_i_glide_ligand_efficiency>  (34) 
-0.319680699419387

>  <r_i_glide_ligand_efficiency_sa>  (34) 
-0.853036504558038

>  <r_i_glide_ligand_efficiency_ln>  (34) 
-1.53987254487885

>  <r_i_glide_gscore>  (34) 
-6.12643328896835

>  <r_i_glide_lipo>  (34) 
-0.547131577617911

>  <r_i_glide_hbond>  (34) 
-0.294358032872083

>  <r_i_glide_metal>  (34) 
0

>  <r_i_glide_rewards>  (34) 
-2.00760404545454

>  <r_i_glide_evdw>  (34) 
-25.686544418335

>  <r_i_glide_ecoul>  (34) 
-16.2509708404541

>  <r_i_glide_erotb>  (34) 
0.473849765286345

>  <r_i_glide_esite>  (34) 
-0.0292165513252916

>  <r_i_glide_emodel>  (34) 
-60.0396530480305

>  <r_i_glide_energy>  (34) 
-41.9375152587891

>  <r_i_glide_einternal>  (34) 
7.66904211044312

>  <i_i_glide_confnum>  (34) 
5

>  <i_i_glide_posenum>  (34) 
330

>  <r_i_glide_eff_state_penalty>  (34) 
0.0525

>  <s_m_subgroup_title>  (34) 
0995dock_pv

>  <s_m_subgroupid>  (34) 
0995dock_pv

>  <b_m_subgroup_collapsed>  (34) 
0

>  <class>  (34) 
1

>  <isCentroid>  (34) 
flase

$$$$
ZINC000006007868
     RDKit          3D

 16 16  0  0  1  0  0  0  0  0999 V2000
    3.2957   11.6620  -22.1579 C   0  0  0  0  0  0  0  0  0  0  0  0
    4.4155   10.6441  -22.4570 C   0  0  1  0  0  0  0  0  0  0  0  0
    3.9642    9.6863  -23.4165 O   0  0  0  0  0  0  0  0  0  0  0  0
    3.1341    8.6529  -23.0405 C   0  0  0  0  0  0  0  0  0  0  0  0
    2.6842    7.8044  -24.0729 C   0  0  0  0  0  0  0  0  0  0  0  0
    1.8610    6.7003  -23.7887 C   0  0  0  0  0  0  0  0  0  0  0  0
    1.4764    6.4361  -22.4614 C   0  0  0  0  0  0  0  0  0  0  0  0
    1.9215    7.2702  -21.4129 C   0  0  0  0  0  0  0  0  0  0  0  0
    1.5500    6.9716  -19.9675 C   0  0  0  0  0  0  0  0  0  0  0  0
    2.6127    7.1405  -19.1790 F   0  0  0  0  0  0  0  0  0  0  0  0
    0.5868    7.8024  -19.5757 F   0  0  0  0  0  0  0  0  0  0  0  0
    1.1223    5.7168  -19.8225 F   0  0  0  0  0  0  0  0  0  0  0  0
    2.7411    8.3797  -21.7074 C   0  0  0  0  0  0  0  0  0  0  0  0
    5.6624   11.3447  -23.0171 C   0  0  0  0  0  0  0  0  0  0  0  0
    5.9229   12.5134  -22.6580 O   0  0  0  0  0  0  0  0  0  0  0  0
    6.3696   10.6982  -23.8170 O   0  0  0  0  0  0  0  0  0  0  0  0
  2  1  1  6
  2  3  1  0
  2 14  1  0
  3  4  1  0
  4  5  2  0
  4 13  1  0
  5  6  1  0
  6  7  2  0
  7  8  1  0
  8  9  1  0
  8 13  2  0
  9 10  1  0
  9 11  1  0
  9 12  1  0
 14 15  2  0
 14 16  1  0
M  CHG  1  16  -1
M  END
>  <s_m_entry_id>  (35) 
60

>  <s_m_entry_name>  (35) 
ZINC000006007868.1

>  <s_m_Source_Path>  (35) 
/home/bhw/schrodinger/schrodinger/0995dock

>  <s_m_Source_File>  (35) 
0995dock_pv.maegz

>  <i_m_Source_File_Index>  (35) 
60

>  <zinc_id>  (35) 
ZINC000006007868

>  <smiles>  (35) 
C[C@@H](Oc1cccc(C(F)(F)F)c1)C(=O)O

>  <chiral flag>  (35) 
0

>  <version>  (35) 
0

>  <i_lp_mmshare_version>  (35) 
44012

>  <s_epik_input>  (35) 
Tz1DKFtPSF0pW0NAQEhdKFtDSDNdKU9jMVtjSF1bY0hdW2NIXWMoQyhGKShGKUYpW2NIXTE=

>  <s_epik_cmdline>  (35) 
J2VwaWtfcHl0aG9uJywgJy1waCcsICc3LjAnLCAnLXRuJywgJzgnLCAnLW1hJywgJzIwMCcsICctaW1hZScsICc8aW5maWxlLm1hZT4nLCAnLW9tYWUnLCAnPG91dGZpbGUubWFlPic=

>  <r_epik_Ionization_Penalty>  (35) 
0.0001

>  <r_epik_Ionization_Penalty_Charging>  (35) 
0.0001

>  <r_epik_Ionization_Penalty_Neutral>  (35) 
0.0000

>  <r_epik_State_Penalty>  (35) 
0.0000

>  <r_epik_Charging_Adjusted_Penalty>  (35) 
6.55924543943862e-05

>  <i_epik_Tot_Q>  (35) 
-1

>  <i_epik_Tot_abs_Q>  (35) 
1

>  <i_f3d_flags>  (35) 
0

>  <s_lp_Force_Field>  (35) 
OPLS_2005

>  <r_lp_Energy>  (35) 
11.979697

>  <b_lp_Chiralities_Consistent>  (35) 
1

>  <s_lp_Variant>  (35) 
ZINC000006007868-1

>  <s_m_job_name>  (35) 
zinc0995

>  <s_i_glide_gridfile>  (35) 
zincglide

>  <i_i_glide_lignum>  (35) 
7203

>  <i_i_glide_rotatable_bonds>  (35) 
4

>  <r_i_docking_score>  (35) 
-6.10628240127582

>  <r_i_glide_ligand_efficiency>  (35) 
-0.381642650079739

>  <r_i_glide_ligand_efficiency_sa>  (35) 
-0.961679215857472

>  <r_i_glide_ligand_efficiency_ln>  (35) 
-1.61859212621792

>  <r_i_glide_gscore>  (35) 
-6.10628240127582

>  <r_i_glide_lipo>  (35) 
-0.525995691829647

>  <r_i_glide_hbond>  (35) 
-0.291568304276852

>  <r_i_glide_metal>  (35) 
0

>  <r_i_glide_rewards>  (35) 
-3.54909601356344

>  <r_i_glide_evdw>  (35) 
-19.98415184021

>  <r_i_glide_ecoul>  (35) 
-7.87973070144653

>  <r_i_glide_erotb>  (35) 
0.441544805621595

>  <r_i_glide_esite>  (35) 
0

>  <r_i_glide_emodel>  (35) 
-42.0460112325636

>  <r_i_glide_energy>  (35) 
-27.8638825416565

>  <r_i_glide_einternal>  (35) 
3.97133111953735

>  <i_i_glide_confnum>  (35) 
5

>  <i_i_glide_posenum>  (35) 
50

>  <r_i_glide_eff_state_penalty>  (35) 
0

>  <r_lp_tautomer_probability>  (35) 
1

>  <s_m_subgroup_title>  (35) 
0995dock_pv

>  <s_m_subgroupid>  (35) 
0995dock_pv

>  <b_m_subgroup_collapsed>  (35) 
0

>  <class>  (35) 
3

>  <isCentroid>  (35) 
flase

$$$$
ZINC000006447031
     RDKit          3D

 27 30  0  0  1  0  0  0  0  0999 V2000
    6.3237   11.7127  -23.4185 O   0  0  0  0  0  0  0  0  0  0  0  0
    5.3924   11.1025  -22.9019 C   0  0  0  0  0  0  0  0  0  0  0  0
    4.2534   11.7799  -22.6171 N   0  0  0  0  0  0  0  0  0  0  0  0
    3.0653   11.1971  -22.2147 N   0  0  0  0  0  0  0  0  0  0  0  0
    3.0301    9.9166  -22.0133 C   0  0  0  0  0  0  0  0  0  0  0  0
    1.4958    9.0691  -21.5875 S   0  0  0  0  0  0  0  0  0  0  0  0
    1.5396    7.4644  -22.3323 C   0  0  0  0  0  0  0  0  0  0  0  0
    1.9197    7.3812  -23.6301 N   0  0  0  0  0  0  0  0  0  0  0  0
    1.9237    6.1826  -24.2213 C   0  0  0  0  0  0  0  0  0  0  0  0
    1.5209    5.0038  -23.7351 N   0  0  0  0  0  0  0  0  0  0  0  0
    1.0869    5.1172  -22.4469 C   0  0  0  0  0  0  0  0  0  0  0  0
    1.0853    6.3030  -21.6648 C   0  0  0  0  0  0  0  0  0  0  0  0
    0.5920    6.0575  -20.3909 N   0  0  0  0  0  0  0  0  0  0  0  0
    0.2916    4.7591  -20.4708 C   0  0  0  0  0  0  0  0  0  0  0  0
    0.5353    4.1414  -21.6440 N   0  0  0  0  0  0  0  0  0  0  0  0
    0.2731    2.7323  -22.0518 C   0  0  1  0  0  0  0  0  0  0  0  0
   -0.0764    1.9692  -20.9465 O   0  0  0  0  0  0  0  0  0  0  0  0
   -0.5845    0.7550  -21.4803 C   0  0  1  0  0  0  0  0  0  0  0  0
   -1.1923   -0.1343  -20.3840 C   0  0  0  0  0  0  0  0  0  0  0  0
   -0.1682   -0.8999  -19.7726 O   0  0  0  0  0  0  0  0  0  0  0  0
   -1.5368    1.2543  -22.5858 C   0  0  1  0  0  0  0  0  0  0  0  0
   -2.8743    1.3803  -22.1274 O   0  0  0  0  0  0  0  0  0  0  0  0
   -0.9093    2.5905  -23.0206 C   0  0  1  0  0  0  0  0  0  0  0  0
   -1.8158    3.6838  -22.9828 O   0  0  0  0  0  0  0  0  0  0  0  0
    4.3054    9.1264  -22.1370 C   0  0  0  0  0  0  0  0  0  0  0  0
    4.3235    7.9547  -21.7628 O   0  0  0  0  0  0  0  0  0  0  0  0
    5.4099    9.7685  -22.6174 N   0  0  0  0  0  0  0  0  0  0  0  0
  1  2  2  0
  2  3  1  0
  2 27  1  0
  3  4  1  0
  4  5  2  0
  5  6  1  0
  5 25  1  0
  6  7  1  0
  7  8  2  0
  7 12  1  0
  8  9  1  0
  9 10  2  0
 10 11  1  0
 11 12  2  0
 11 15  1  0
 12 13  1  0
 13 14  2  0
 14 15  1  0
 16 15  1  1
 16 17  1  0
 16 23  1  0
 17 18  1  0
 18 19  1  1
 18 21  1  0
 19 20  1  0
 21 22  1  1
 21 23  1  0
 23 24  1  1
 25 26  2  0
 25 27  1  0
M  CHG  1  27  -1
M  END
>  <s_m_entry_id>  (36) 
2

>  <s_m_entry_name>  (36) 
ZINC000006447031.1

>  <s_m_Source_Path>  (36) 
/home/bhw/schrodinger/schrodinger/0995dock

>  <s_m_Source_File>  (36) 
0995dock_pv.maegz

>  <i_m_Source_File_Index>  (36) 
2

>  <zinc_id>  (36) 
ZINC000006447031

>  <smiles>  (36) 
O=c1[nH]nc(Sc2ncnc3c2ncn3[C@H]2O[C@@H](CO)[C@@H](O)[C@H]2O)c(=O)[nH]1

>  <chiral flag>  (36) 
0

>  <version>  (36) 
0

>  <i_lp_mmshare_version>  (36) 
44012

>  <s_epik_input>  (36) 
Tz1jMVtuSF1uYyhjKD1PKVtuSF0xKVNjKG5bY0hdbjIpYyhjMjMpbltjSF1uM1tDQEhdNE9bQ0BASF0oW0NIMl1bT0hdKVtDQEBIXShbT0hdKVtDQEhdNFtPSF0=

>  <s_epik_cmdline>  (36) 
J2VwaWtfcHl0aG9uJywgJy1waCcsICc3LjAnLCAnLXRuJywgJzgnLCAnLW1hJywgJzIwMCcsICctaW1hZScsICc8aW5maWxlLm1hZT4nLCAnLW9tYWUnLCAnPG91dGZpbGUubWFlPic=

>  <r_epik_Ionization_Penalty>  (36) 
0.2048

>  <r_epik_Ionization_Penalty_Charging>  (36) 
0.0001

>  <r_epik_Ionization_Penalty_Neutral>  (36) 
0.2048

>  <r_epik_State_Penalty>  (36) 
0.5277

>  <r_epik_Charging_Adjusted_Penalty>  (36) 
0.527708945587802

>  <i_epik_Tot_Q>  (36) 
-1

>  <i_epik_Tot_abs_Q>  (36) 
1

>  <s_epik_Chemistry_Notes>  (36) 
This compound contains an acetal/aminal-like group ( X-CH(R)-Y where X, Y are N, S, or O) that may be acid/base labile, releasing an aldehyde.

>  <i_f3d_flags>  (36) 
0

>  <s_lp_Force_Field>  (36) 
OPLS_2005

>  <r_lp_Energy>  (36) 
62.004453

>  <b_lp_Chiralities_Consistent>  (36) 
1

>  <s_lp_Variant>  (36) 
ZINC000006447031-2

>  <s_m_job_name>  (36) 
zinc0995

>  <s_i_glide_gridfile>  (36) 
zincglide

>  <i_i_glide_lignum>  (36) 
7492

>  <i_i_glide_rotatable_bonds>  (36) 
7

>  <r_i_docking_score>  (36) 
-7.1447884040545

>  <r_i_glide_ligand_efficiency>  (36) 
-0.264621792742759

>  <r_i_glide_ligand_efficiency_sa>  (36) 
-0.793865377356128

>  <r_i_glide_ligand_efficiency_ln>  (36) 
-1.66318894942118

>  <r_i_glide_gscore>  (36) 
-7.6724884040545

>  <r_i_glide_lipo>  (36) 
-0.60599097721782

>  <r_i_glide_hbond>  (36) 
-0.463235164335777

>  <r_i_glide_metal>  (36) 
0

>  <r_i_glide_rewards>  (36) 
-3.0457881834539

>  <r_i_glide_evdw>  (36) 
-31.0693073272705

>  <r_i_glide_ecoul>  (36) 
-15.4196701049805

>  <r_i_glide_erotb>  (36) 
0.351900792208214

>  <r_i_glide_esite>  (36) 
-0.0429589891446232

>  <r_i_glide_emodel>  (36) 
-67.0909531762887

>  <r_i_glide_energy>  (36) 
-46.488977432251

>  <r_i_glide_einternal>  (36) 
10.9339332580566

>  <i_i_glide_confnum>  (36) 
62

>  <i_i_glide_posenum>  (36) 
32

>  <r_i_glide_eff_state_penalty>  (36) 
0.5277

>  <s_m_subgroup_title>  (36) 
0995dock_pv

>  <s_m_subgroupid>  (36) 
0995dock_pv

>  <b_m_subgroup_collapsed>  (36) 
0

>  <class>  (36) 
1

>  <isCentroid>  (36) 
true

$$$$
ZINC000006660542
     RDKit          3D

 27 29  0  0  1  0  0  0  0  0999 V2000
    3.4517    7.2703  -16.6180 C   0  0  0  0  0  0  0  0  0  0  0  0
    2.4975    6.2550  -16.3413 O   0  0  0  0  0  0  0  0  0  0  0  0
    1.7902    5.7226  -17.3977 C   0  0  0  0  0  0  0  0  0  0  0  0
    0.9364    4.6391  -17.1126 C   0  0  0  0  0  0  0  0  0  0  0  0
    0.2031    4.0125  -18.1367 C   0  0  0  0  0  0  0  0  0  0  0  0
    0.3217    4.4729  -19.4618 C   0  0  0  0  0  0  0  0  0  0  0  0
    1.1469    5.5876  -19.7831 C   0  0  0  0  0  0  0  0  0  0  0  0
    1.8773    6.1939  -18.7318 C   0  0  0  0  0  0  0  0  0  0  0  0
    1.0458    5.7892  -21.1969 C   0  0  0  0  0  0  0  0  0  0  0  0
    1.7279    6.8330  -21.9722 C   0  0  0  0  0  0  0  0  0  0  0  0
    1.6737    8.1522  -21.7065 C   0  0  0  0  0  0  0  0  0  0  0  0
    0.6942    8.9570  -20.4986 S   0  0  0  0  0  0  0  0  0  0  0  0
    1.2452   10.5293  -20.9694 C   0  0  0  0  0  0  0  0  0  0  0  0
    0.6780   11.9066  -20.2151 S   0  0  0  0  0  0  0  0  0  0  0  0
    2.1512   10.4095  -21.9800 N   0  0  0  0  0  0  0  0  0  0  0  0
    2.8551   11.5823  -22.5355 C   0  0  0  0  0  0  0  0  0  0  0  0
    3.9827   12.0791  -21.6002 C   0  0  0  0  0  0  0  0  0  0  0  0
    5.2919   12.4192  -22.3350 C   0  0  0  0  0  0  0  0  0  0  0  0
    6.0128   11.1704  -22.8506 C   0  0  0  0  0  0  0  0  0  0  0  0
    5.9237   10.1133  -22.1925 O   0  0  0  0  0  0  0  0  0  0  0  0
    6.7210   11.3128  -23.8725 O   0  0  0  0  0  0  0  0  0  0  0  0
    2.4158    9.1623  -22.4430 C   0  0  0  0  0  0  0  0  0  0  0  0
    3.1912    8.9130  -23.3699 O   0  0  0  0  0  0  0  0  0  0  0  0
    0.2445    4.8058  -21.7124 C   0  0  0  0  0  0  0  0  0  0  0  0
   -0.1270    4.5479  -23.1381 C   0  0  0  0  0  0  0  0  0  0  0  0
   -0.2262    4.0202  -20.6596 N   0  0  0  0  0  0  0  0  0  0  0  0
   -1.1205    2.8842  -20.7982 C   0  0  0  0  0  0  0  0  0  0  0  0
  1  2  1  0
  2  3  1  0
  3  4  2  0
  3  8  1  0
  4  5  1  0
  5  6  2  0
  6  7  1  0
  6 26  1  0
  7  8  2  0
  7  9  1  0
  9 10  1  0
  9 24  2  0
 10 11  2  0
 11 12  1  0
 11 22  1  0
 12 13  1  0
 13 14  2  0
 13 15  1  0
 15 16  1  0
 15 22  1  0
 16 17  1  0
 17 18  1  0
 18 19  1  0
 19 20  2  0
 19 21  1  0
 22 23  2  0
 24 25  1  0
 24 26  1  0
 26 27  1  0
M  CHG  1  21  -1
M  END
>  <s_m_entry_id>  (37) 
49

>  <s_m_entry_name>  (37) 
ZINC000006660542.1

>  <s_m_Source_Path>  (37) 
/home/bhw/schrodinger/schrodinger/0995dock

>  <s_m_Source_File>  (37) 
0995dock_pv.maegz

>  <i_m_Source_File_Index>  (37) 
49

>  <zinc_id>  (37) 
ZINC000006660542

>  <smiles>  (37) 
COc1ccc2c(c1)c(/C=C1\SC(=S)N(CCCC(=O)O)C1=O)c(C)n2C

>  <chiral flag>  (37) 
0

>  <version>  (37) 
0

>  <i_lp_mmshare_version>  (37) 
44012

>  <s_epik_input>  (37) 
W0NIM11PYyhbY0hdW2NIXTEpW2NIXWMoYzEyKWMoYyhbQ0gzXSluMltDSDNdKS9bQ0hdPUMzXFNDKD1TKU4oQzM9TylbQ0gyXVtDSDJdW0NIMl1DKD1PKVtPSF0=

>  <s_epik_cmdline>  (37) 
J2VwaWtfcHl0aG9uJywgJy1waCcsICc3LjAnLCAnLXRuJywgJzgnLCAnLW1hJywgJzIwMCcsICctaW1hZScsICc8aW5maWxlLm1hZT4nLCAnLW9tYWUnLCAnPG91dGZpbGUubWFlPic=

>  <r_epik_Ionization_Penalty>  (37) 
0.0020

>  <r_epik_Ionization_Penalty_Charging>  (37) 
0.0020

>  <r_epik_Ionization_Penalty_Neutral>  (37) 
0.0000

>  <r_epik_State_Penalty>  (37) 
0.0014

>  <r_epik_Charging_Adjusted_Penalty>  (37) 
0.00344457813939959

>  <i_epik_Tot_Q>  (37) 
-1

>  <i_epik_Tot_abs_Q>  (37) 
1

>  <i_f3d_flags>  (37) 
0

>  <s_lp_Force_Field>  (37) 
OPLS_2005

>  <r_lp_Energy>  (37) 
18.873664

>  <b_lp_Chiralities_Consistent>  (37) 
1

>  <s_lp_Variant>  (37) 
ZINC000006660542-1

>  <s_m_job_name>  (37) 
zinc0995

>  <s_i_glide_gridfile>  (37) 
zincglide

>  <i_i_glide_lignum>  (37) 
7702

>  <i_i_glide_rotatable_bonds>  (37) 
6

>  <r_i_docking_score>  (37) 
-6.15811899940415

>  <r_i_glide_ligand_efficiency>  (37) 
-0.228078481459413

>  <r_i_glide_ligand_efficiency_sa>  (37) 
-0.68423544362653

>  <r_i_glide_ligand_efficiency_ln>  (37) 
-1.43350857853501

>  <r_i_glide_gscore>  (37) 
-6.15951899940415

>  <r_i_glide_lipo>  (37) 
-0.876901476082535

>  <r_i_glide_hbond>  (37) 
-0.360457579954499

>  <r_i_glide_metal>  (37) 
0

>  <r_i_glide_rewards>  (37) 
-2.27838495487228

>  <r_i_glide_evdw>  (37) 
-26.4498043060303

>  <r_i_glide_ecoul>  (37) 
-10.8498907089233

>  <r_i_glide_erotb>  (37) 
0.337665436285139

>  <r_i_glide_esite>  (37) 
-0.0314666031399605

>  <r_i_glide_emodel>  (37) 
-52.115327777373

>  <r_i_glide_energy>  (37) 
-37.2996950149536

>  <r_i_glide_einternal>  (37) 
8.70906162261963

>  <i_i_glide_confnum>  (37) 
20

>  <i_i_glide_posenum>  (37) 
299

>  <r_i_glide_eff_state_penalty>  (37) 
0.0014

>  <s_m_subgroup_title>  (37) 
0995dock_pv

>  <s_m_subgroupid>  (37) 
0995dock_pv

>  <b_m_subgroup_collapsed>  (37) 
0

>  <class>  (37) 
2

>  <isCentroid>  (37) 
flase

$$$$
ZINC000006931853
     RDKit          3D

 20 20  0  0  1  0  0  0  0  0999 V2000
    4.1799   12.1496  -20.9421 C   0  0  0  0  0  0  0  0  0  0  0  0
    4.6839   10.9346  -21.7441 C   0  0  1  0  0  0  0  0  0  0  0  0
    3.5284   10.2241  -22.2851 N   0  0  0  0  0  0  0  0  0  0  0  0
    3.3846    8.8920  -22.3026 C   0  0  0  0  0  0  0  0  0  0  0  0
    4.2054    8.1102  -21.8170 O   0  0  0  0  0  0  0  0  0  0  0  0
    2.2367    8.5221  -22.8960 N   0  0  0  0  0  0  0  0  0  0  0  0
    1.7131    7.2059  -22.9538 C   0  0  0  0  0  0  0  0  0  0  0  0
    2.4778    6.1137  -23.4171 C   0  0  0  0  0  0  0  0  0  0  0  0
    1.9235    4.8205  -23.4373 C   0  0  0  0  0  0  0  0  0  0  0  0
    0.5988    4.5916  -23.0176 C   0  0  0  0  0  0  0  0  0  0  0  0
    0.1482    3.2881  -23.0641 O   0  0  0  0  0  0  0  0  0  0  0  0
   -1.0035    2.9228  -22.4380 C   0  0  0  0  0  0  0  0  0  0  0  0
   -0.9810    3.2375  -21.1184 F   0  0  0  0  0  0  0  0  0  0  0  0
   -2.0967    3.4796  -23.0171 F   0  0  0  0  0  0  0  0  0  0  0  0
   -1.1553    1.5789  -22.5187 F   0  0  0  0  0  0  0  0  0  0  0  0
   -0.1795    5.6988  -22.5955 C   0  0  0  0  0  0  0  0  0  0  0  0
    0.3731    6.9951  -22.5735 C   0  0  0  0  0  0  0  0  0  0  0  0
    5.5772   11.3741  -22.9124 C   0  0  0  0  0  0  0  0  0  0  0  0
    5.5236   12.5540  -23.3142 O   0  0  0  0  0  0  0  0  0  0  0  0
    6.3236   10.5134  -23.4170 O   0  0  0  0  0  0  0  0  0  0  0  0
  2  1  1  6
  2  3  1  0
  2 18  1  0
  3  4  1  0
  4  5  2  0
  4  6  1  0
  6  7  1  0
  7  8  2  0
  7 17  1  0
  8  9  1  0
  9 10  2  0
 10 11  1  0
 10 16  1  0
 11 12  1  0
 12 13  1  0
 12 14  1  0
 12 15  1  0
 16 17  2  0
 18 19  2  0
 18 20  1  0
M  CHG  1  20  -1
M  END
>  <s_m_entry_id>  (38) 
45

>  <s_m_entry_name>  (38) 
ZINC000006931853.1

>  <s_m_Source_Path>  (38) 
/home/bhw/schrodinger/schrodinger/0995dock

>  <s_m_Source_File>  (38) 
0995dock_pv.maegz

>  <i_m_Source_File_Index>  (38) 
45

>  <zinc_id>  (38) 
ZINC000006931853

>  <smiles>  (38) 
C[C@@H](NC(=O)Nc1ccc(OC(F)(F)F)cc1)C(=O)O

>  <chiral flag>  (38) 
0

>  <version>  (38) 
0

>  <i_lp_mmshare_version>  (38) 
44012

>  <s_epik_input>  (38) 
Tz1DKFtPSF0pW0NAQEhdKFtDSDNdKVtOSF1DKD1PKVtOSF1jMVtjSF1bY0hdYyhPQyhGKShGKUYpW2NIXVtjSF0x

>  <s_epik_cmdline>  (38) 
J2VwaWtfcHl0aG9uJywgJy1waCcsICc3LjAnLCAnLXRuJywgJzgnLCAnLW1hJywgJzIwMCcsICctaW1hZScsICc8aW5maWxlLm1hZT4nLCAnLW9tYWUnLCAnPG91dGZpbGUubWFlPic=

>  <r_epik_Ionization_Penalty>  (38) 
0.0004

>  <r_epik_Ionization_Penalty_Charging>  (38) 
0.0004

>  <r_epik_Ionization_Penalty_Neutral>  (38) 
0.0000

>  <r_epik_State_Penalty>  (38) 
0.0002

>  <r_epik_Charging_Adjusted_Penalty>  (38) 
0.000582946234922457

>  <i_epik_Tot_Q>  (38) 
-1

>  <i_epik_Tot_abs_Q>  (38) 
1

>  <i_f3d_flags>  (38) 
0

>  <s_lp_Force_Field>  (38) 
OPLS_2005

>  <r_lp_Energy>  (38) 
7.600028

>  <b_lp_Chiralities_Consistent>  (38) 
1

>  <s_lp_Variant>  (38) 
ZINC000006931853-1

>  <s_m_job_name>  (38) 
zinc0995

>  <s_i_glide_gridfile>  (38) 
zincglide

>  <i_i_glide_lignum>  (38) 
8091

>  <i_i_glide_rotatable_bonds>  (38) 
7

>  <r_i_docking_score>  (38) 
-6.1963744525906

>  <r_i_glide_ligand_efficiency>  (38) 
-0.30981872262953

>  <r_i_glide_ligand_efficiency_sa>  (38) 
-0.840977397816747

>  <r_i_glide_ligand_efficiency_ln>  (38) 
-1.5507481553761

>  <r_i_glide_gscore>  (38) 
-6.1965744525906

>  <r_i_glide_lipo>  (38) 
-0.918700740651061

>  <r_i_glide_hbond>  (38) 
-0.334936601782738

>  <r_i_glide_metal>  (38) 
0

>  <r_i_glide_rewards>  (38) 
-2.56500073799036

>  <r_i_glide_evdw>  (38) 
-24.0162200927734

>  <r_i_glide_ecoul>  (38) 
-12.5702114105225

>  <r_i_glide_erotb>  (38) 
0.752723202842324

>  <r_i_glide_esite>  (38) 
-0.0443168587917303

>  <r_i_glide_emodel>  (38) 
-55.0175270605365

>  <r_i_glide_energy>  (38) 
-36.5864315032959

>  <r_i_glide_einternal>  (38) 
3.51351594924927

>  <i_i_glide_confnum>  (38) 
1

>  <i_i_glide_posenum>  (38) 
15

>  <r_i_glide_eff_state_penalty>  (38) 
0.0002

>  <r_lp_tautomer_probability>  (38) 
1

>  <s_m_subgroup_title>  (38) 
0995dock_pv

>  <s_m_subgroupid>  (38) 
0995dock_pv

>  <b_m_subgroup_collapsed>  (38) 
0

>  <class>  (38) 
8

>  <isCentroid>  (38) 
flase

$$$$
ZINC000008680750
     RDKit          3D

 17 17  0  0  1  0  0  0  0  0999 V2000
    5.5990   13.1945  -20.8216 C   0  0  0  0  0  0  0  0  0  0  0  0
    4.3971   12.2784  -21.1042 C   0  0  0  0  0  0  0  0  0  0  0  0
    4.3232   11.7860  -22.5704 C   0  0  2  0  0  0  0  0  0  0  0  0
    2.9990   11.2991  -23.0170 N   0  0  0  0  0  0  0  0  0  0  0  0
    2.1808   10.3487  -22.4883 C   0  0  0  0  0  0  0  0  0  0  0  0
    2.3237    9.5599  -21.0165 S   0  0  0  0  0  0  0  0  0  0  0  0
    1.2040   10.1137  -23.4061 N   0  0  0  0  0  0  0  0  0  0  0  0
    0.1696    9.0776  -23.3216 C   0  0  0  0  0  0  0  0  0  0  0  0
    0.6685    7.6372  -23.4236 C   0  0  0  0  0  0  0  0  0  0  0  0
   -0.0704    6.6097  -22.7977 C   0  0  0  0  0  0  0  0  0  0  0  0
    0.3911    5.2783  -22.8265 C   0  0  0  0  0  0  0  0  0  0  0  0
    1.5985    4.9654  -23.4794 C   0  0  0  0  0  0  0  0  0  0  0  0
    2.3318    5.9834  -24.1187 C   0  0  0  0  0  0  0  0  0  0  0  0
    1.8660    7.3123  -24.1029 C   0  0  0  0  0  0  0  0  0  0  0  0
    5.4813   10.8703  -23.0128 C   0  0  0  0  0  0  0  0  0  0  0  0
    5.5222    9.7140  -22.5409 O   0  0  0  0  0  0  0  0  0  0  0  0
    6.3237   11.3336  -23.8170 O   0  0  0  0  0  0  0  0  0  0  0  0
  1  2  1  0
  3  2  1  1
  3  4  1  0
  3 15  1  0
  4  5  1  0
  5  6  2  0
  5  7  1  0
  7  8  1  0
  8  9  1  0
  9 10  2  0
  9 14  1  0
 10 11  1  0
 11 12  2  0
 12 13  1  0
 13 14  2  0
 15 16  2  0
 15 17  1  0
M  CHG  1  17  -1
M  END
>  <s_m_entry_id>  (39) 
30

>  <s_m_entry_name>  (39) 
ZINC000008680750.1

>  <s_m_Source_Path>  (39) 
/home/bhw/schrodinger/schrodinger/0995dock

>  <s_m_Source_File>  (39) 
0995dock_pv.maegz

>  <i_m_Source_File_Index>  (39) 
30

>  <zinc_id>  (39) 
ZINC000008680750

>  <smiles>  (39) 
CC[C@H](/N=C(\S)NCc1ccccc1)C(=O)O

>  <chiral flag>  (39) 
0

>  <version>  (39) 
0

>  <i_lp_mmshare_version>  (39) 
44012

>  <s_epik_input>  (39) 
W0NIM11bQ0gyXVtDQEBIXShDKD1PKVtPSF0pL049QyhcW1NIXSlbTkhdW0NIMl1jMVtjSF1bY0hdW2NIXVtjSF1bY0hdMQ==

>  <s_epik_cmdline>  (39) 
J2VwaWtfcHl0aG9uJywgJy1waCcsICc3LjAnLCAnLXRuJywgJzgnLCAnLW1hJywgJzIwMCcsICctaW1hZScsICc8aW5maWxlLm1hZT4nLCAnLW9tYWUnLCAnPG91dGZpbGUubWFlPic=

>  <r_epik_Ionization_Penalty>  (39) 
0.0002

>  <r_epik_Ionization_Penalty_Charging>  (39) 
0.0002

>  <r_epik_Ionization_Penalty_Neutral>  (39) 
0.0000

>  <r_epik_State_Penalty>  (39) 
0.0000

>  <r_epik_Charging_Adjusted_Penalty>  (39) 
0.000216642372059937

>  <i_epik_Tot_Q>  (39) 
-1

>  <i_epik_Tot_abs_Q>  (39) 
1

>  <i_f3d_flags>  (39) 
0

>  <s_lp_Force_Field>  (39) 
OPLS_2005

>  <r_lp_Energy>  (39) 
14.366978

>  <b_lp_Chiralities_Consistent>  (39) 
1

>  <s_lp_Variant>  (39) 
ZINC000008680750-1

>  <s_m_job_name>  (39) 
zinc0995

>  <s_i_glide_gridfile>  (39) 
zincglide

>  <i_i_glide_lignum>  (39) 
8992

>  <i_i_glide_rotatable_bonds>  (39) 
7

>  <r_i_docking_score>  (39) 
-6.32019241977743

>  <r_i_glide_ligand_efficiency>  (39) 
-0.37177602469279

>  <r_i_glide_ligand_efficiency_sa>  (39) 
-0.955940847237877

>  <r_i_glide_ligand_efficiency_ln>  (39) 
-1.64879745855459

>  <r_i_glide_gscore>  (39) 
-6.32019241977743

>  <r_i_glide_lipo>  (39) 
-0.908086751846421

>  <r_i_glide_hbond>  (39) 
-0.534922284883219

>  <r_i_glide_metal>  (39) 
0

>  <r_i_glide_rewards>  (39) 
-2.48666359858873

>  <r_i_glide_evdw>  (39) 
-22.264289855957

>  <r_i_glide_ecoul>  (39) 
-12.3595390319824

>  <r_i_glide_erotb>  (39) 
0.77692177663502

>  <r_i_glide_esite>  (39) 
-0.200296213498865

>  <r_i_glide_emodel>  (39) 
-55.3884756445494

>  <r_i_glide_energy>  (39) 
-34.6238288879395

>  <r_i_glide_einternal>  (39) 
3.57546234130859

>  <i_i_glide_confnum>  (39) 
10

>  <i_i_glide_posenum>  (39) 
377

>  <r_i_glide_eff_state_penalty>  (39) 
0

>  <r_lp_tautomer_probability>  (39) 
1

>  <s_m_subgroup_title>  (39) 
0995dock_pv

>  <s_m_subgroupid>  (39) 
0995dock_pv

>  <b_m_subgroup_collapsed>  (39) 
0

>  <class>  (39) 
7

>  <isCentroid>  (39) 
flase

$$$$
ZINC000008702734
     RDKit          3D

 17 17  0  0  1  0  0  0  0  0999 V2000
    5.7768   13.3138  -20.8262 C   0  0  0  0  0  0  0  0  0  0  0  0
    4.8294   13.1922  -22.0351 C   0  0  0  0  0  0  0  0  0  0  0  0
    4.4308   11.7484  -22.4219 C   0  0  2  0  0  0  0  0  0  0  0  0
    3.6364   11.1342  -21.3533 N   0  0  0  0  0  0  0  0  0  0  0  0
    2.9216    9.9370  -21.5372 C   0  0  0  0  0  0  0  0  0  0  0  0
    2.3236    9.3369  -20.4094 C   0  0  0  0  0  0  0  0  0  0  0  0
    1.6427    8.1099  -20.5258 C   0  0  0  0  0  0  0  0  0  0  0  0
    1.5564    7.4667  -21.7746 C   0  0  0  0  0  0  0  0  0  0  0  0
    2.1444    8.0541  -22.9140 C   0  0  0  0  0  0  0  0  0  0  0  0
    2.0783    7.3599  -24.2652 C   0  0  0  0  0  0  0  0  0  0  0  0
    2.0892    6.0345  -24.1176 F   0  0  0  0  0  0  0  0  0  0  0  0
    0.9614    7.7139  -24.8972 F   0  0  0  0  0  0  0  0  0  0  0  0
    3.1233    7.7045  -25.0169 F   0  0  0  0  0  0  0  0  0  0  0  0
    2.8036    9.2942  -22.7913 C   0  0  0  0  0  0  0  0  0  0  0  0
    5.6607   10.9136  -22.8358 C   0  0  0  0  0  0  0  0  0  0  0  0
    5.9237    9.8787  -22.1883 O   0  0  0  0  0  0  0  0  0  0  0  0
    6.3237   11.3139  -23.8172 O   0  0  0  0  0  0  0  0  0  0  0  0
  1  2  1  0
  3  2  1  1
  3  4  1  0
  3 15  1  0
  4  5  1  0
  5  6  2  0
  5 14  1  0
  6  7  1  0
  7  8  2  0
  8  9  1  0
  9 10  1  0
  9 14  2  0
 10 11  1  0
 10 12  1  0
 10 13  1  0
 15 16  2  0
 15 17  1  0
M  CHG  1  17  -1
M  END
>  <s_m_entry_id>  (40) 
91

>  <s_m_entry_name>  (40) 
ZINC000008702734.1

>  <s_m_Source_Path>  (40) 
/home/bhw/schrodinger/schrodinger/0995dock

>  <s_m_Source_File>  (40) 
0995dock_pv.maegz

>  <i_m_Source_File_Index>  (40) 
91

>  <zinc_id>  (40) 
ZINC000008702734

>  <smiles>  (40) 
CC[C@H](Nc1cccc(C(F)(F)F)c1)C(=O)O

>  <chiral flag>  (40) 
0

>  <version>  (40) 
0

>  <i_lp_mmshare_version>  (40) 
44012

>  <s_epik_input>  (40) 
W0NIM11bQ0gyXVtDQEBIXShDKD1PKVtPSF0pW05IXWMxW2NIXVtjSF1bY0hdYyhDKEYpKEYpRilbY0hdMQ==

>  <s_epik_cmdline>  (40) 
J2VwaWtfcHl0aG9uJywgJy1waCcsICc3LjAnLCAnLXRuJywgJzgnLCAnLW1hJywgJzIwMCcsICctaW1hZScsICc8aW5maWxlLm1hZT4nLCAnLW9tYWUnLCAnPG91dGZpbGUubWFlPic=

>  <r_epik_Ionization_Penalty>  (40) 
0.0041

>  <r_epik_Ionization_Penalty_Charging>  (40) 
0.0039

>  <r_epik_Ionization_Penalty_Neutral>  (40) 
0.0002

>  <r_epik_State_Penalty>  (40) 
0.0028

>  <r_epik_Charging_Adjusted_Penalty>  (40) 
0.00662759336500507

>  <i_epik_Tot_Q>  (40) 
-1

>  <i_epik_Tot_abs_Q>  (40) 
1

>  <i_f3d_flags>  (40) 
0

>  <s_lp_Force_Field>  (40) 
OPLS_2005

>  <r_lp_Energy>  (40) 
5.844574

>  <b_lp_Chiralities_Consistent>  (40) 
1

>  <s_lp_Variant>  (40) 
ZINC000008702734-1

>  <s_m_job_name>  (40) 
zinc0995

>  <s_i_glide_gridfile>  (40) 
zincglide

>  <i_i_glide_lignum>  (40) 
9049

>  <i_i_glide_rotatable_bonds>  (40) 
5

>  <r_i_docking_score>  (40) 
-5.95158965015973

>  <r_i_glide_ligand_efficiency>  (40) 
-0.350093508832925

>  <r_i_glide_ligand_efficiency_sa>  (40) 
-0.900188993420904

>  <r_i_glide_ligand_efficiency_ln>  (40) 
-1.55263720434144

>  <r_i_glide_gscore>  (40) 
-5.95438965015973

>  <r_i_glide_lipo>  (40) 
-0.251850095222691

>  <r_i_glide_hbond>  (40) 
-0.376142731173778

>  <r_i_glide_metal>  (40) 
0

>  <r_i_glide_rewards>  (40) 
-3.27428951462194

>  <r_i_glide_evdw>  (40) 
-20.4184513092041

>  <r_i_glide_ecoul>  (40) 
-9.4494514465332

>  <r_i_glide_erotb>  (40) 
0.402403412497811

>  <r_i_glide_esite>  (40) 
-0.0161704391989472

>  <r_i_glide_emodel>  (40) 
-43.2680876408805

>  <r_i_glide_energy>  (40) 
-29.8679027557373

>  <r_i_glide_einternal>  (40) 
6.66450119018555

>  <i_i_glide_confnum>  (40) 
3

>  <i_i_glide_posenum>  (40) 
320

>  <r_i_glide_eff_state_penalty>  (40) 
0.0028

>  <s_m_subgroup_title>  (40) 
0995dock_pv

>  <s_m_subgroupid>  (40) 
0995dock_pv

>  <b_m_subgroup_collapsed>  (40) 
0

>  <class>  (40) 
7

>  <isCentroid>  (40) 
flase

$$$$
ZINC000012760844
     RDKit          3D

 15 15  0  0  1  0  0  0  0  0999 V2000
    5.9226   12.5580  -23.0209 O   0  0  0  0  0  0  0  0  0  0  0  0
    5.8390   11.3141  -22.9750 C   0  0  0  0  0  0  0  0  0  0  0  0
    6.3237   10.5322  -23.8170 O   0  0  0  0  0  0  0  0  0  0  0  0
    5.1258   10.6977  -21.7832 C   0  0  0  0  0  0  0  0  0  0  0  0
    3.7767   10.2290  -22.1241 N   0  0  0  0  0  0  0  0  0  0  0  0
    2.8006   11.2194  -22.3246 C   0  0  0  0  0  0  0  0  0  0  0  0
    1.5319   10.9086  -22.6170 C   0  0  0  0  0  0  0  0  0  0  0  0
    1.1866    9.5174  -22.7584 C   0  0  0  0  0  0  0  0  0  0  0  0
    2.0938    8.5398  -22.5319 C   0  0  0  0  0  0  0  0  0  0  0  0
    1.7456    7.0697  -22.7576 C   0  0  0  0  0  0  0  0  0  0  0  0
    1.5235    6.4686  -21.5892 F   0  0  0  0  0  0  0  0  0  0  0  0
    0.6405    6.9378  -23.4921 F   0  0  0  0  0  0  0  0  0  0  0  0
    2.7232    6.4180  -23.3913 F   0  0  0  0  0  0  0  0  0  0  0  0
    3.4722    8.8960  -22.1329 C   0  0  0  0  0  0  0  0  0  0  0  0
    4.3111    8.0500  -21.8169 O   0  0  0  0  0  0  0  0  0  0  0  0
  1  2  2  0
  2  3  1  0
  2  4  1  0
  4  5  1  0
  5  6  1  0
  5 14  1  0
  6  7  2  0
  7  8  1  0
  8  9  2  0
  9 10  1  0
  9 14  1  0
 10 11  1  0
 10 12  1  0
 10 13  1  0
 14 15  2  0
M  CHG  1   3  -1
M  END
>  <s_m_entry_id>  (41) 
102

>  <s_m_entry_name>  (41) 
ZINC000012760844.1

>  <s_m_Source_Path>  (41) 
/home/bhw/schrodinger/schrodinger/0995dock

>  <s_m_Source_File>  (41) 
0995dock_pv.maegz

>  <i_m_Source_File_Index>  (41) 
102

>  <zinc_id>  (41) 
ZINC000012760844

>  <smiles>  (41) 
O=C(O)Cn1cccc(C(F)(F)F)c1=O

>  <chiral flag>  (41) 
0

>  <version>  (41) 
0

>  <i_lp_mmshare_version>  (41) 
44012

>  <s_epik_input>  (41) 
Tz1DKFtPSF0pW0NIMl1uMVtjSF1bY0hdW2NIXWMoQyhGKShGKUYpYzE9Tw==

>  <s_epik_cmdline>  (41) 
J2VwaWtfcHl0aG9uJywgJy1waCcsICc3LjAnLCAnLXRuJywgJzgnLCAnLW1hJywgJzIwMCcsICctaW1hZScsICc8aW5maWxlLm1hZT4nLCAnLW9tYWUnLCAnPG91dGZpbGUubWFlPic=

>  <r_epik_Ionization_Penalty>  (41) 
0.0013

>  <r_epik_Ionization_Penalty_Charging>  (41) 
0.0013

>  <r_epik_Ionization_Penalty_Neutral>  (41) 
0.0000

>  <r_epik_State_Penalty>  (41) 
0.0008

>  <r_epik_Charging_Adjusted_Penalty>  (41) 
0.00209102977692057

>  <i_epik_Tot_Q>  (41) 
-1

>  <i_epik_Tot_abs_Q>  (41) 
1

>  <i_f3d_flags>  (41) 
0

>  <s_lp_Force_Field>  (41) 
OPLS_2005

>  <r_lp_Energy>  (41) 
9.577468

>  <b_lp_Chiralities_Consistent>  (41) 
1

>  <s_lp_Variant>  (41) 
ZINC000012760844-1

>  <s_m_job_name>  (41) 
zinc0995

>  <s_i_glide_gridfile>  (41) 
zincglide

>  <i_i_glide_lignum>  (41) 
11718

>  <i_i_glide_rotatable_bonds>  (41) 
3

>  <r_i_docking_score>  (41) 
-5.9239626093154

>  <r_i_glide_ligand_efficiency>  (41) 
-0.394930840621027

>  <r_i_glide_ligand_efficiency_sa>  (41) 
-0.97398320678586

>  <r_i_glide_ligand_efficiency_ln>  (41) 
-1.59759503999016

>  <r_i_glide_gscore>  (41) 
-5.9247626093154

>  <r_i_glide_lipo>  (41) 
-0.0804147694414418

>  <r_i_glide_hbond>  (41) 
-0.501362365806424

>  <r_i_glide_metal>  (41) 
0

>  <r_i_glide_rewards>  (41) 
-3.11399365739472

>  <r_i_glide_evdw>  (41) 
-18.1771564483643

>  <r_i_glide_ecoul>  (41) 
-10.2395811080933

>  <r_i_glide_erotb>  (41) 
0.243373788211928

>  <r_i_glide_esite>  (41) 
-0.0275706162525393

>  <r_i_glide_emodel>  (41) 
-43.2007334122793

>  <r_i_glide_energy>  (41) 
-28.4167375564575

>  <r_i_glide_einternal>  (41) 
1.3350442647934

>  <i_i_glide_confnum>  (41) 
2

>  <i_i_glide_posenum>  (41) 
257

>  <r_i_glide_eff_state_penalty>  (41) 
0.0008

>  <r_lp_tautomer_probability>  (41) 
1

>  <s_m_subgroup_title>  (41) 
0995dock_pv

>  <s_m_subgroupid>  (41) 
0995dock_pv

>  <b_m_subgroup_collapsed>  (41) 
0

>  <class>  (41) 
7

>  <isCentroid>  (41) 
flase

$$$$
ZINC000013253258
     RDKit          3D

 24 25  0  0  1  0  0  0  0  0999 V2000
    6.3238   11.3186  -23.8213 O   0  0  0  0  0  0  0  0  0  0  0  0
    5.5890   10.8168  -22.9447 C   0  0  0  0  0  0  0  0  0  0  0  0
    5.9237    9.8639  -22.2078 O   0  0  0  0  0  0  0  0  0  0  0  0
    4.1966   11.4458  -22.7362 C   0  0  1  0  0  0  0  0  0  0  0  0
    3.2303   10.5708  -21.8988 C   0  0  0  0  0  0  0  0  0  0  0  0
    2.8984    9.1960  -22.5047 C   0  0  0  0  0  0  0  0  0  0  0  0
    3.2466    8.9131  -23.6516 O   0  0  0  0  0  0  0  0  0  0  0  0
    2.2116    8.3722  -21.6925 N   0  0  0  0  0  0  0  0  0  0  0  0
    1.7310    7.0529  -21.9245 C   0  0  0  0  0  0  0  0  0  0  0  0
    1.9229    6.3221  -23.1241 C   0  0  0  0  0  0  0  0  0  0  0  0
    1.4155    5.0156  -23.2504 C   0  0  0  0  0  0  0  0  0  0  0  0
    0.7078    4.4168  -22.1871 C   0  0  0  0  0  0  0  0  0  0  0  0
    0.1626    3.0055  -22.3356 C   0  0  0  0  0  0  0  0  0  0  0  0
   -0.9803    3.0449  -23.0164 F   0  0  0  0  0  0  0  0  0  0  0  0
    1.0407    2.2558  -23.0003 F   0  0  0  0  0  0  0  0  0  0  0  0
   -0.0762    2.4402  -21.1529 F   0  0  0  0  0  0  0  0  0  0  0  0
    0.5061    5.1462  -20.9959 C   0  0  0  0  0  0  0  0  0  0  0  0
    1.0159    6.4528  -20.8679 C   0  0  0  0  0  0  0  0  0  0  0  0
    4.3783   12.8405  -22.1372 C   0  0  0  0  0  0  0  0  0  0  0  0
    3.6019   13.9136  -22.6294 C   0  0  0  0  0  0  0  0  0  0  0  0
    3.7757   15.2142  -22.1192 C   0  0  0  0  0  0  0  0  0  0  0  0
    4.7246   15.4511  -21.1065 C   0  0  0  0  0  0  0  0  0  0  0  0
    5.4865   14.3839  -20.6001 C   0  0  0  0  0  0  0  0  0  0  0  0
    5.3030   13.0831  -21.0939 C   0  0  0  0  0  0  0  0  0  0  0  0
  1  2  2  0
  2  3  1  0
  2  4  1  0
  4  5  1  1
  4 19  1  0
  5  6  1  0
  6  7  2  0
  6  8  1  0
  8  9  1  0
  9 10  2  0
  9 18  1  0
 10 11  1  0
 11 12  2  0
 12 13  1  0
 12 17  1  0
 13 14  1  0
 13 15  1  0
 13 16  1  0
 17 18  2  0
 19 20  2  0
 19 24  1  0
 20 21  1  0
 21 22  2  0
 22 23  1  0
 23 24  2  0
M  CHG  1   3  -1
M  END
>  <s_m_entry_id>  (42) 
8

>  <s_m_entry_name>  (42) 
ZINC000013253258.1

>  <s_m_Source_Path>  (42) 
/home/bhw/schrodinger/schrodinger/0995dock

>  <s_m_Source_File>  (42) 
0995dock_pv.maegz

>  <i_m_Source_File_Index>  (42) 
8

>  <zinc_id>  (42) 
ZINC000013253258

>  <smiles>  (42) 
O=C(C[C@H](C(=O)O)c1ccccc1)Nc1ccc(C(F)(F)F)cc1

>  <chiral flag>  (42) 
0

>  <version>  (42) 
0

>  <i_lp_mmshare_version>  (42) 
44012

>  <s_epik_input>  (42) 
W2NIXTFbY0hdW2NIXVtjSF1bY0hdYzFbQ0BASF0oQyg9TylbT0hdKVtDSDJdQyg9TylbTkhdYzJbY0hdW2NIXWMoQyhGKShGKUYpW2NIXVtjSF0y

>  <s_epik_cmdline>  (42) 
J2VwaWtfcHl0aG9uJywgJy1waCcsICc3LjAnLCAnLXRuJywgJzgnLCAnLW1hJywgJzIwMCcsICctaW1hZScsICc8aW5maWxlLm1hZT4nLCAnLW9tYWUnLCAnPG91dGZpbGUubWFlPic=

>  <r_epik_Ionization_Penalty>  (42) 
0.0016

>  <r_epik_Ionization_Penalty_Charging>  (42) 
0.0016

>  <r_epik_Ionization_Penalty_Neutral>  (42) 
0.0000

>  <r_epik_State_Penalty>  (42) 
0.0011

>  <r_epik_Charging_Adjusted_Penalty>  (42) 
0.00262321451505056

>  <i_epik_Tot_Q>  (42) 
-1

>  <i_epik_Tot_abs_Q>  (42) 
1

>  <i_f3d_flags>  (42) 
0

>  <s_lp_Force_Field>  (42) 
OPLS_2005

>  <r_lp_Energy>  (42) 
19.469783

>  <b_lp_Chiralities_Consistent>  (42) 
1

>  <s_lp_Variant>  (42) 
ZINC000013253258-1

>  <s_m_job_name>  (42) 
zinc0995

>  <s_i_glide_gridfile>  (42) 
zincglide

>  <i_i_glide_lignum>  (42) 
12138

>  <i_i_glide_rotatable_bonds>  (42) 
7

>  <r_i_docking_score>  (42) 
-6.60258506397606

>  <r_i_glide_ligand_efficiency>  (42) 
-0.275107710999002

>  <r_i_glide_ligand_efficiency_sa>  (42) 
-0.793547955112486

>  <r_i_glide_ligand_efficiency_ln>  (42) 
-1.58030157869608

>  <r_i_glide_gscore>  (42) 
-6.60368506397606

>  <r_i_glide_lipo>  (42) 
-0.956209842122988

>  <r_i_glide_hbond>  (42) 
-0.377197483310214

>  <r_i_glide_metal>  (42) 
0

>  <r_i_glide_rewards>  (42) 
-2.50895402009891

>  <r_i_glide_evdw>  (42) 
-29.0066070556641

>  <r_i_glide_ecoul>  (42) 
-11.7004384994507

>  <r_i_glide_erotb>  (42) 
0.467569112766514

>  <r_i_glide_esite>  (42) 
-0.0234967035096527

>  <r_i_glide_emodel>  (42) 
-62.9953758111779

>  <r_i_glide_energy>  (42) 
-40.7070455551147

>  <r_i_glide_einternal>  (42) 
2.41683650016785

>  <i_i_glide_confnum>  (42) 
2

>  <i_i_glide_posenum>  (42) 
318

>  <r_i_glide_eff_state_penalty>  (42) 
0.0011

>  <s_m_subgroup_title>  (42) 
0995dock_pv

>  <s_m_subgroupid>  (42) 
0995dock_pv

>  <b_m_subgroup_collapsed>  (42) 
0

>  <class>  (42) 
8

>  <isCentroid>  (42) 
flase

$$$$
ZINC000013253260
     RDKit          3D

 24 25  0  0  1  0  0  0  0  0999 V2000
    4.7237    9.7248  -23.8170 O   0  0  0  0  0  0  0  0  0  0  0  0
    5.3501   10.5380  -23.1087 C   0  0  0  0  0  0  0  0  0  0  0  0
    6.4644   11.0216  -23.4170 O   0  0  0  0  0  0  0  0  0  0  0  0
    4.7338   10.9549  -21.7631 C   0  0  2  0  0  0  0  0  0  0  0  0
    3.2946   10.4284  -21.4873 C   0  0  0  0  0  0  0  0  0  0  0  0
    3.0681    8.9121  -21.5609 C   0  0  0  0  0  0  0  0  0  0  0  0
    3.9973    8.1135  -21.4170 O   0  0  0  0  0  0  0  0  0  0  0  0
    1.7945    8.5426  -21.7679 N   0  0  0  0  0  0  0  0  0  0  0  0
    1.3415    7.2253  -21.9900 C   0  0  0  0  0  0  0  0  0  0  0  0
    1.9739    6.3846  -22.9316 C   0  0  0  0  0  0  0  0  0  0  0  0
    1.5092    5.0716  -23.1244 C   0  0  0  0  0  0  0  0  0  0  0  0
    0.3999    4.5967  -22.3893 C   0  0  0  0  0  0  0  0  0  0  0  0
   -0.0977    3.1742  -22.5592 C   0  0  0  0  0  0  0  0  0  0  0  0
   -1.3484    3.1801  -23.0169 F   0  0  0  0  0  0  0  0  0  0  0  0
    0.6734    2.5135  -23.4168 F   0  0  0  0  0  0  0  0  0  0  0  0
   -0.0763    2.5414  -21.3868 F   0  0  0  0  0  0  0  0  0  0  0  0
   -0.2543    5.4551  -21.4818 C   0  0  0  0  0  0  0  0  0  0  0  0
    0.2084    6.7698  -21.2885 C   0  0  0  0  0  0  0  0  0  0  0  0
    4.8153   12.4772  -21.6677 C   0  0  0  0  0  0  0  0  0  0  0  0
    5.8381   13.0689  -20.8982 C   0  0  0  0  0  0  0  0  0  0  0  0
    5.9237   14.4673  -20.7931 C   0  0  0  0  0  0  0  0  0  0  0  0
    4.9833   15.2898  -21.4384 C   0  0  0  0  0  0  0  0  0  0  0  0
    3.9662   14.7092  -22.2174 C   0  0  0  0  0  0  0  0  0  0  0  0
    3.8874   13.3087  -22.3400 C   0  0  0  0  0  0  0  0  0  0  0  0
  1  2  2  0
  2  3  1  0
  2  4  1  0
  4  5  1  6
  4 19  1  0
  5  6  1  0
  6  7  2  0
  6  8  1  0
  8  9  1  0
  9 10  2  0
  9 18  1  0
 10 11  1  0
 11 12  2  0
 12 13  1  0
 12 17  1  0
 13 14  1  0
 13 15  1  0
 13 16  1  0
 17 18  2  0
 19 20  2  0
 19 24  1  0
 20 21  1  0
 21 22  2  0
 22 23  1  0
 23 24  2  0
M  CHG  1   3  -1
M  END
>  <s_m_entry_id>  (43) 
4

>  <s_m_entry_name>  (43) 
ZINC000013253260.1

>  <s_m_Source_Path>  (43) 
/home/bhw/schrodinger/schrodinger/0995dock

>  <s_m_Source_File>  (43) 
0995dock_pv.maegz

>  <i_m_Source_File_Index>  (43) 
4

>  <zinc_id>  (43) 
ZINC000013253260

>  <smiles>  (43) 
O=C(C[C@@H](C(=O)O)c1ccccc1)Nc1ccc(C(F)(F)F)cc1

>  <chiral flag>  (43) 
0

>  <version>  (43) 
0

>  <i_lp_mmshare_version>  (43) 
44012

>  <s_epik_input>  (43) 
W2NIXTFbY0hdW2NIXVtjSF1bY0hdYzFbQ0BIXShDKD1PKVtPSF0pW0NIMl1DKD1PKVtOSF1jMltjSF1bY0hdYyhDKEYpKEYpRilbY0hdW2NIXTI=

>  <s_epik_cmdline>  (43) 
J2VwaWtfcHl0aG9uJywgJy1waCcsICc3LjAnLCAnLXRuJywgJzgnLCAnLW1hJywgJzIwMCcsICctaW1hZScsICc8aW5maWxlLm1hZT4nLCAnLW9tYWUnLCAnPG91dGZpbGUubWFlPic=

>  <r_epik_Ionization_Penalty>  (43) 
0.0016

>  <r_epik_Ionization_Penalty_Charging>  (43) 
0.0016

>  <r_epik_Ionization_Penalty_Neutral>  (43) 
0.0000

>  <r_epik_State_Penalty>  (43) 
0.0011

>  <r_epik_Charging_Adjusted_Penalty>  (43) 
0.00262321451505056

>  <i_epik_Tot_Q>  (43) 
-1

>  <i_epik_Tot_abs_Q>  (43) 
1

>  <i_f3d_flags>  (43) 
0

>  <s_lp_Force_Field>  (43) 
OPLS_2005

>  <r_lp_Energy>  (43) 
19.890852

>  <b_lp_Chiralities_Consistent>  (43) 
1

>  <s_lp_Variant>  (43) 
ZINC000013253260-1

>  <s_m_job_name>  (43) 
zinc0995

>  <s_i_glide_gridfile>  (43) 
zincglide

>  <i_i_glide_lignum>  (43) 
12139

>  <i_i_glide_rotatable_bonds>  (43) 
7

>  <r_i_docking_score>  (43) 
-6.65501407726844

>  <r_i_glide_ligand_efficiency>  (43) 
-0.277292253219518

>  <r_i_glide_ligand_efficiency_sa>  (43) 
-0.799849265263525

>  <r_i_glide_ligand_efficiency_ln>  (43) 
-1.5928502473876

>  <r_i_glide_gscore>  (43) 
-6.65611407726844

>  <r_i_glide_lipo>  (43) 
-0.812012858956014

>  <r_i_glide_hbond>  (43) 
-0.508472956142845

>  <r_i_glide_metal>  (43) 
0

>  <r_i_glide_rewards>  (43) 
-2.31462389280953

>  <r_i_glide_evdw>  (43) 
-26.8008232116699

>  <r_i_glide_ecoul>  (43) 
-14.25914478302

>  <r_i_glide_erotb>  (43) 
0.467569112766514

>  <r_i_glide_esite>  (43) 
-0.00966060409006378

>  <r_i_glide_emodel>  (43) 
-63.5753440273343

>  <r_i_glide_energy>  (43) 
-41.0599679946899

>  <r_i_glide_einternal>  (43) 
2.00244832038879

>  <i_i_glide_confnum>  (43) 
3

>  <i_i_glide_posenum>  (43) 
267

>  <r_i_glide_eff_state_penalty>  (43) 
0.0011

>  <s_m_subgroup_title>  (43) 
0995dock_pv

>  <s_m_subgroupid>  (43) 
0995dock_pv

>  <b_m_subgroup_collapsed>  (43) 
0

>  <class>  (43) 
8

>  <isCentroid>  (43) 
flase

$$$$
ZINC000016382824
     RDKit          3D

 18 19  0  0  1  0  0  0  0  0999 V2000
    5.0367   19.6902  -23.8170 O   0  0  0  0  0  0  0  0  0  0  0  0
    3.6494   19.4796  -23.8364 N   0  0  0  0  0  0  0  0  0  0  0  0
    2.9442   20.3413  -24.7446 O   0  0  0  0  0  0  0  0  0  0  0  0
    3.0379   18.5915  -23.1275 N   0  0  0  0  0  0  0  0  0  0  0  0
    3.6917   17.8033  -22.2692 C   0  0  0  0  0  0  0  0  0  0  0  0
    4.0917   18.1592  -21.0522 N   0  0  0  0  0  0  0  0  0  0  0  0
    4.7237   17.0498  -20.6170 N   0  0  0  0  0  0  0  0  0  0  0  0
    4.6685   16.0963  -21.5509 C   0  0  0  0  0  0  0  0  0  0  0  0
    5.3193   14.7922  -21.4568 C   0  0  0  0  0  0  0  0  0  0  0  0
    6.3149   14.5135  -20.6166 N   0  0  0  0  0  0  0  0  0  0  0  0
    6.7237   13.2394  -20.7823 N   0  0  0  0  0  0  0  0  0  0  0  0
    5.9069   12.8013  -21.7357 C   0  0  0  0  0  0  0  0  0  0  0  0
    5.9237   11.5648  -22.2462 N   0  0  0  0  0  0  0  0  0  0  0  0
    5.0363   10.7019  -21.8632 N   0  0  0  0  0  0  0  0  0  0  0  0
    3.9237   11.0070  -21.0754 O   0  0  0  0  0  0  0  0  0  0  0  0
    5.1237    9.3135  -22.2237 O   0  0  0  0  0  0  0  0  0  0  0  0
    5.0490   13.7427  -22.2334 N   0  0  0  0  0  0  0  0  0  0  0  0
    3.9869   16.5144  -22.6170 N   0  0  0  0  0  0  0  0  0  0  0  0
  1  2  2  0
  2  3  1  0
  2  4  1  0
  4  5  1  0
  5  6  2  0
  5 18  1  0
  6  7  1  0
  7  8  1  0
  8  9  1  0
  8 18  2  0
  9 10  1  0
  9 17  2  0
 10 11  1  0
 11 12  2  0
 12 13  1  0
 12 17  1  0
 13 14  1  0
 14 15  2  0
 14 16  1  0
M  CHG  6   2   1   3  -1   4  -1  13  -1  14   1  16  -1
M  END
>  <s_m_entry_id>  (44) 
85

>  <s_m_entry_name>  (44) 
ZINC000016382824.1

>  <s_m_Source_Path>  (44) 
/home/bhw/schrodinger/schrodinger/0995dock

>  <s_m_Source_File>  (44) 
0995dock_pv.maegz

>  <i_m_Source_File_Index>  (44) 
85

>  <zinc_id>  (44) 
ZINC000016382824

>  <smiles>  (44) 
O=[N+]([O-])Nc1nc(-c2nnc(N[N+](=O)[O-])[nH]2)n[nH]1

>  <chiral flag>  (44) 
0

>  <version>  (44) 
0

>  <i_lp_mmshare_version>  (44) 
44012

>  <s_epik_input>  (44) 
Tz1bTitdKFtPLV0pW05IXWMxbm5jKFtuSF0xKS1jMm5bbkhdYyhuMilbTkhdW04rXSg9TylbTy1d

>  <s_epik_cmdline>  (44) 
J2VwaWtfcHl0aG9uJywgJy1waCcsICc3LjAnLCAnLXRuJywgJzgnLCAnLW1hJywgJzIwMCcsICctaW1hZScsICc8aW5maWxlLm1hZT4nLCAnLW9tYWUnLCAnPG91dGZpbGUubWFlPic=

>  <r_epik_Ionization_Penalty>  (44) 
0.0047

>  <r_epik_Ionization_Penalty_Charging>  (44) 
0.0045

>  <r_epik_Ionization_Penalty_Neutral>  (44) 
0.0002

>  <r_epik_State_Penalty>  (44) 
0.4698

>  <r_epik_Charging_Adjusted_Penalty>  (44) 
0.474325668952103

>  <i_epik_Tot_Q>  (44) 
-2

>  <i_epik_Tot_abs_Q>  (44) 
6

>  <i_f3d_flags>  (44) 
0

>  <s_lp_Force_Field>  (44) 
OPLS_2005

>  <r_lp_Energy>  (44) 
9.531095

>  <b_lp_Chiralities_Consistent>  (44) 
1

>  <s_lp_Variant>  (44) 
ZINC000016382824-2

>  <s_m_job_name>  (44) 
zinc0995

>  <s_i_glide_gridfile>  (44) 
zincglide

>  <i_i_glide_lignum>  (44) 
13520

>  <i_i_glide_rotatable_bonds>  (44) 
5

>  <r_i_docking_score>  (44) 
-5.97513925492617

>  <r_i_glide_ligand_efficiency>  (44) 
-0.331952180829232

>  <r_i_glide_ligand_efficiency_sa>  (44) 
-0.869960820358915

>  <r_i_glide_ligand_efficiency_ln>  (44) 
-1.53587873518736

>  <r_i_glide_gscore>  (44) 
-6.44493925492617

>  <r_i_glide_lipo>  (44) 
0

>  <r_i_glide_hbond>  (44) 
-0.453988414094723

>  <r_i_glide_metal>  (44) 
0

>  <r_i_glide_rewards>  (44) 
-1.67643218181818

>  <r_i_glide_evdw>  (44) 
-24.2027645111084

>  <r_i_glide_ecoul>  (44) 
-22.9098625183105

>  <r_i_glide_erotb>  (44) 
0.816748618878613

>  <r_i_glide_esite>  (44) 
-0.48464967458988

>  <r_i_glide_emodel>  (44) 
-65.3660670027053

>  <r_i_glide_energy>  (44) 
-47.1126270294189

>  <r_i_glide_einternal>  (44) 
3.92947101593018

>  <i_i_glide_confnum>  (44) 
7

>  <i_i_glide_posenum>  (44) 
334

>  <r_i_glide_eff_state_penalty>  (44) 
0.4698

>  <s_m_subgroup_title>  (44) 
0995dock_pv

>  <s_m_subgroupid>  (44) 
0995dock_pv

>  <b_m_subgroup_collapsed>  (44) 
0

>  <class>  (44) 
9

>  <isCentroid>  (44) 
flase

$$$$
ZINC000019269060
     RDKit          3D

 13 13  0  0  1  0  0  0  0  0999 V2000
    6.3229   10.5139  -23.4403 O   0  0  0  0  0  0  0  0  0  0  0  0
    5.5170   11.3431  -22.9703 C   0  0  0  0  0  0  0  0  0  0  0  0
    5.6816   12.5808  -23.0128 O   0  0  0  0  0  0  0  0  0  0  0  0
    4.2242   10.8210  -22.3466 C   0  0  0  0  0  0  0  0  0  0  0  0
    4.0077    9.0184  -22.2173 S   0  0  0  0  0  0  0  0  0  0  0  0
    2.2123    8.8929  -22.4504 C   0  0  0  0  0  0  0  0  0  0  0  0
    1.8000    7.4342  -22.5150 C   0  0  0  0  0  0  0  0  0  0  0  0
    1.1293    6.8346  -21.4277 C   0  0  0  0  0  0  0  0  0  0  0  0
    0.7420    5.4814  -21.4923 C   0  0  0  0  0  0  0  0  0  0  0  0
    1.0300    4.7207  -22.6425 C   0  0  0  0  0  0  0  0  0  0  0  0
    1.6987    5.3161  -23.7290 C   0  0  0  0  0  0  0  0  0  0  0  0
    2.0819    6.6690  -23.6695 C   0  0  0  0  0  0  0  0  0  0  0  0
    2.7235    7.2330  -24.7200 F   0  0  0  0  0  0  0  0  0  0  0  0
  1  2  2  0
  2  3  1  0
  2  4  1  0
  4  5  1  0
  5  6  1  0
  6  7  1  0
  7  8  2  0
  7 12  1  0
  8  9  1  0
  9 10  2  0
 10 11  1  0
 11 12  2  0
 12 13  1  0
M  CHG  1   3  -1
M  END
>  <s_m_entry_id>  (45) 
43

>  <s_m_entry_name>  (45) 
ZINC000019269060.1

>  <s_m_Source_Path>  (45) 
/home/bhw/schrodinger/schrodinger/0995dock

>  <s_m_Source_File>  (45) 
0995dock_pv.maegz

>  <i_m_Source_File_Index>  (45) 
43

>  <zinc_id>  (45) 
ZINC000019269060

>  <smiles>  (45) 
O=C(O)CSCc1ccccc1F

>  <chiral flag>  (45) 
0

>  <version>  (45) 
0

>  <i_lp_mmshare_version>  (45) 
44012

>  <s_epik_input>  (45) 
Tz1DKFtPSF0pW0NIMl1TW0NIMl1jMVtjSF1bY0hdW2NIXVtjSF1jMUY=

>  <s_epik_cmdline>  (45) 
J2VwaWtfcHl0aG9uJywgJy1waCcsICc3LjAnLCAnLXRuJywgJzgnLCAnLW1hJywgJzIwMCcsICctaW1hZScsICc8aW5maWxlLm1hZT4nLCAnLW9tYWUnLCAnPG91dGZpbGUubWFlPic=

>  <r_epik_Ionization_Penalty>  (45) 
0.0004

>  <r_epik_Ionization_Penalty_Charging>  (45) 
0.0004

>  <r_epik_Ionization_Penalty_Neutral>  (45) 
0.0000

>  <r_epik_State_Penalty>  (45) 
0.0002

>  <r_epik_Charging_Adjusted_Penalty>  (45) 
0.000580510452898289

>  <i_epik_Tot_Q>  (45) 
-1

>  <i_epik_Tot_abs_Q>  (45) 
1

>  <i_f3d_flags>  (45) 
0

>  <s_lp_Force_Field>  (45) 
OPLS_2005

>  <r_lp_Energy>  (45) 
4.735752

>  <b_lp_Chiralities_Consistent>  (45) 
1

>  <s_lp_Variant>  (45) 
ZINC000019269060-1

>  <s_m_job_name>  (45) 
zinc0995

>  <s_i_glide_gridfile>  (45) 
zincglide

>  <i_i_glide_lignum>  (45) 
14052

>  <i_i_glide_rotatable_bonds>  (45) 
4

>  <r_i_docking_score>  (45) 
-6.207078579367

>  <r_i_glide_ligand_efficiency>  (45) 
-0.477467583028231

>  <r_i_glide_ligand_efficiency_sa>  (45) 
-1.12268608927659

>  <r_i_glide_ligand_efficiency_ln>  (45) 
-1.74114074478377

>  <r_i_glide_gscore>  (45) 
-6.207278579367

>  <r_i_glide_lipo>  (45) 
-0.921957136337305

>  <r_i_glide_hbond>  (45) 
-0.153842234274377

>  <r_i_glide_metal>  (45) 
0

>  <r_i_glide_rewards>  (45) 
-3.27055774333854

>  <r_i_glide_evdw>  (45) 
-19.0939617156982

>  <r_i_glide_ecoul>  (45) 
-9.87739849090576

>  <r_i_glide_erotb>  (45) 
0.575386394003999

>  <r_i_glide_esite>  (45) 
0

>  <r_i_glide_emodel>  (45) 
-45.1875929024094

>  <r_i_glide_energy>  (45) 
-28.971360206604

>  <r_i_glide_einternal>  (45) 
1.30878305435181

>  <i_i_glide_confnum>  (45) 
5

>  <i_i_glide_posenum>  (45) 
335

>  <r_i_glide_eff_state_penalty>  (45) 
0.0002

>  <s_m_subgroup_title>  (45) 
0995dock_pv

>  <s_m_subgroupid>  (45) 
0995dock_pv

>  <b_m_subgroup_collapsed>  (45) 
0

>  <class>  (45) 
4

>  <isCentroid>  (45) 
flase

$$$$
ZINC000019276411
     RDKit          3D

 18 18  0  0  1  0  0  0  0  0999 V2000
    4.2521   12.5054  -21.4733 C   0  0  0  0  0  0  0  0  0  0  0  0
    4.2781   11.3813  -22.5199 C   0  0  2  0  0  0  0  0  0  0  0  0
    3.5501   10.2289  -21.9768 N   0  0  0  0  0  0  0  0  0  0  0  0
    3.2660    9.0970  -22.6425 C   0  0  0  0  0  0  0  0  0  0  0  0
    3.5781    8.9131  -23.8170 O   0  0  0  0  0  0  0  0  0  0  0  0
    2.4897    8.0451  -21.8992 C   0  0  0  0  0  0  0  0  0  0  0  0
    1.7329    7.0985  -22.6261 C   0  0  0  0  0  0  0  0  0  0  0  0
    1.0311    6.0786  -21.9568 C   0  0  0  0  0  0  0  0  0  0  0  0
    1.0919    5.9843  -20.5543 C   0  0  0  0  0  0  0  0  0  0  0  0
    1.8595    6.9066  -19.8127 C   0  0  0  0  0  0  0  0  0  0  0  0
    1.9456    6.7915  -18.2969 C   0  0  0  0  0  0  0  0  0  0  0  0
    3.1232    7.2353  -17.8546 F   0  0  0  0  0  0  0  0  0  0  0  0
    0.9763    7.5212  -17.7458 F   0  0  0  0  0  0  0  0  0  0  0  0
    1.8081    5.5221  -17.9060 F   0  0  0  0  0  0  0  0  0  0  0  0
    2.5449    7.9390  -20.4895 C   0  0  0  0  0  0  0  0  0  0  0  0
    5.7402   11.0599  -22.8849 C   0  0  0  0  0  0  0  0  0  0  0  0
    6.2723   11.7064  -23.8169 O   0  0  0  0  0  0  0  0  0  0  0  0
    6.3237   10.1823  -22.2155 O   0  0  0  0  0  0  0  0  0  0  0  0
  2  1  1  1
  2  3  1  0
  2 16  1  0
  3  4  1  0
  4  5  2  0
  4  6  1  0
  6  7  2  0
  6 15  1  0
  7  8  1  0
  8  9  2  0
  9 10  1  0
 10 11  1  0
 10 15  2  0
 11 12  1  0
 11 13  1  0
 11 14  1  0
 16 17  2  0
 16 18  1  0
M  CHG  1  18  -1
M  END
>  <s_m_entry_id>  (46) 
101

>  <s_m_entry_name>  (46) 
ZINC000019276411.1

>  <s_m_Source_Path>  (46) 
/home/bhw/schrodinger/schrodinger/0995dock

>  <s_m_Source_File>  (46) 
0995dock_pv.maegz

>  <i_m_Source_File_Index>  (46) 
101

>  <zinc_id>  (46) 
ZINC000019276411

>  <smiles>  (46) 
C[C@H](NC(=O)c1cccc(C(F)(F)F)c1)C(=O)O

>  <chiral flag>  (46) 
0

>  <version>  (46) 
0

>  <i_lp_mmshare_version>  (46) 
44012

>  <s_epik_input>  (46) 
Tz1DKFtPSF0pW0NASF0oW0NIM10pW05IXUMoPU8pYzFbY0hdW2NIXVtjSF1jKEMoRikoRilGKVtjSF0x

>  <s_epik_cmdline>  (46) 
J2VwaWtfcHl0aG9uJywgJy1waCcsICc3LjAnLCAnLXRuJywgJzgnLCAnLW1hJywgJzIwMCcsICctaW1hZScsICc8aW5maWxlLm1hZT4nLCAnLW9tYWUnLCAnPG91dGZpbGUubWFlPic=

>  <r_epik_Ionization_Penalty>  (46) 
0.0002

>  <r_epik_Ionization_Penalty_Charging>  (46) 
0.0002

>  <r_epik_Ionization_Penalty_Neutral>  (46) 
0.0000

>  <r_epik_State_Penalty>  (46) 
0.0000

>  <r_epik_Charging_Adjusted_Penalty>  (46) 
0.000229823105421968

>  <i_epik_Tot_Q>  (46) 
-1

>  <i_epik_Tot_abs_Q>  (46) 
1

>  <i_f3d_flags>  (46) 
0

>  <s_lp_Force_Field>  (46) 
OPLS_2005

>  <r_lp_Energy>  (46) 
5.730424

>  <b_lp_Chiralities_Consistent>  (46) 
1

>  <s_lp_Variant>  (46) 
ZINC000019276411-1

>  <s_m_job_name>  (46) 
zinc0995

>  <s_i_glide_gridfile>  (46) 
zincglide

>  <i_i_glide_lignum>  (46) 
14055

>  <i_i_glide_rotatable_bonds>  (46) 
5

>  <r_i_docking_score>  (46) 
-5.92687584183421

>  <r_i_glide_ligand_efficiency>  (46) 
-0.3292708801019

>  <r_i_glide_ligand_efficiency_sa>  (46) 
-0.862933824559245

>  <r_i_glide_ligand_efficiency_ln>  (46) 
-1.5234728737182

>  <r_i_glide_gscore>  (46) 
-5.92687584183421

>  <r_i_glide_lipo>  (46) 
-0.417878212084232

>  <r_i_glide_hbond>  (46) 
-0.470966408605415

>  <r_i_glide_metal>  (46) 
0

>  <r_i_glide_rewards>  (46) 
-2.81705638168007

>  <r_i_glide_evdw>  (46) 
-19.1430168151855

>  <r_i_glide_ecoul>  (46) 
-11.7820720672607

>  <r_i_glide_erotb>  (46) 
0.548991004348513

>  <r_i_glide_esite>  (46) 
-0.0455041929646193

>  <r_i_glide_emodel>  (46) 
-48.0062099273757

>  <r_i_glide_energy>  (46) 
-30.9250888824463

>  <r_i_glide_einternal>  (46) 
1.38661134243011

>  <i_i_glide_confnum>  (46) 
12

>  <i_i_glide_posenum>  (46) 
222

>  <r_i_glide_eff_state_penalty>  (46) 
0

>  <r_lp_tautomer_probability>  (46) 
1

>  <s_m_subgroup_title>  (46) 
0995dock_pv

>  <s_m_subgroupid>  (46) 
0995dock_pv

>  <b_m_subgroup_collapsed>  (46) 
0

>  <class>  (46) 
8

>  <isCentroid>  (46) 
flase

$$$$
ZINC000019867358
     RDKit          3D

 14 14  0  0  1  0  0  0  0  0999 V2000
   -0.4700    2.6472  -21.7086 N   0  0  0  0  0  0  0  0  0  0  0  0
    0.1101    3.5961  -22.0274 C   0  0  0  0  0  0  0  0  0  0  0  0
    0.8406    4.7867  -22.4297 C   0  0  0  0  0  0  0  0  0  0  0  0
    1.8412    4.6912  -23.4162 C   0  0  0  0  0  0  0  0  0  0  0  0
    2.5423    5.8421  -23.8183 C   0  0  0  0  0  0  0  0  0  0  0  0
    2.2500    7.0926  -23.2412 C   0  0  0  0  0  0  0  0  0  0  0  0
    3.1234    8.5135  -23.8169 S   0  0  0  0  0  0  0  0  0  0  0  0
    3.1412    9.7844  -22.5123 C   0  0  0  0  0  0  0  0  0  0  0  0
    4.0325   10.9971  -22.8745 C   0  0  0  0  0  0  0  0  0  0  0  0
    5.5240   10.6505  -22.9391 C   0  0  0  0  0  0  0  0  0  0  0  0
    6.2596   11.3136  -23.7089 O   0  0  0  0  0  0  0  0  0  0  0  0
    5.9237    9.7162  -22.2167 O   0  0  0  0  0  0  0  0  0  0  0  0
    1.2573    7.1905  -22.2444 C   0  0  0  0  0  0  0  0  0  0  0  0
    0.5541    6.0367  -21.8406 C   0  0  0  0  0  0  0  0  0  0  0  0
  1  2  3  0
  2  3  1  0
  3  4  2  0
  3 14  1  0
  4  5  1  0
  5  6  2  0
  6  7  1  0
  6 13  1  0
  7  8  1  0
  8  9  1  0
  9 10  1  0
 10 11  2  0
 10 12  1  0
 13 14  2  0
M  CHG  1  12  -1
M  END
>  <s_m_entry_id>  (47) 
89

>  <s_m_entry_name>  (47) 
ZINC000019867358.1

>  <s_m_Source_Path>  (47) 
/home/bhw/schrodinger/schrodinger/0995dock

>  <s_m_Source_File>  (47) 
0995dock_pv.maegz

>  <i_m_Source_File_Index>  (47) 
89

>  <zinc_id>  (47) 
ZINC000019867358

>  <smiles>  (47) 
N#Cc1ccc(SCCC(=O)O)cc1

>  <chiral flag>  (47) 
0

>  <version>  (47) 
0

>  <i_lp_mmshare_version>  (47) 
44012

>  <s_epik_input>  (47) 
TiNDYzFbY0hdW2NIXWMoW2NIXVtjSF0xKVNbQ0gyXVtDSDJdQyg9TylbT0hd

>  <s_epik_cmdline>  (47) 
J2VwaWtfcHl0aG9uJywgJy1waCcsICc3LjAnLCAnLXRuJywgJzgnLCAnLW1hJywgJzIwMCcsICctaW1hZScsICc8aW5maWxlLm1hZT4nLCAnLW9tYWUnLCAnPG91dGZpbGUubWFlPic=

>  <r_epik_Ionization_Penalty>  (47) 
0.0013

>  <r_epik_Ionization_Penalty_Charging>  (47) 
0.0013

>  <r_epik_Ionization_Penalty_Neutral>  (47) 
0.0000

>  <r_epik_State_Penalty>  (47) 
0.0009

>  <r_epik_Charging_Adjusted_Penalty>  (47) 
0.00216638582605839

>  <i_epik_Tot_Q>  (47) 
-1

>  <i_epik_Tot_abs_Q>  (47) 
1

>  <i_f3d_flags>  (47) 
0

>  <s_lp_Force_Field>  (47) 
OPLS_2005

>  <r_lp_Energy>  (47) 
5.322656

>  <b_lp_Chiralities_Consistent>  (47) 
1

>  <s_lp_Variant>  (47) 
ZINC000019867358-1

>  <s_m_job_name>  (47) 
zinc0995

>  <s_i_glide_gridfile>  (47) 
zincglide

>  <i_i_glide_lignum>  (47) 
14252

>  <i_i_glide_rotatable_bonds>  (47) 
5

>  <r_i_docking_score>  (47) 
-5.96135554918103

>  <r_i_glide_ligand_efficiency>  (47) 
-0.425811110655788

>  <r_i_glide_ligand_efficiency_sa>  (47) 
-1.02626535344412

>  <r_i_glide_ligand_efficiency_ln>  (47) 
-1.63815928390754

>  <r_i_glide_gscore>  (47) 
-5.96225554918103

>  <r_i_glide_lipo>  (47) 
-0.884919871110532

>  <r_i_glide_hbond>  (47) 
-0.36

>  <r_i_glide_metal>  (47) 
0

>  <r_i_glide_rewards>  (47) 
-3.00858668839886

>  <r_i_glide_evdw>  (47) 
-19.2429809570312

>  <r_i_glide_ecoul>  (47) 
-10.4079875946045

>  <r_i_glide_erotb>  (47) 
0.814598197370598

>  <r_i_glide_esite>  (47) 
0

>  <r_i_glide_emodel>  (47) 
-44.3788320752637

>  <r_i_glide_energy>  (47) 
-29.6509685516357

>  <r_i_glide_einternal>  (47) 
2.91833257675171

>  <i_i_glide_confnum>  (47) 
11

>  <i_i_glide_posenum>  (47) 
387

>  <r_i_glide_eff_state_penalty>  (47) 
0.0009

>  <s_m_subgroup_title>  (47) 
0995dock_pv

>  <s_m_subgroupid>  (47) 
0995dock_pv

>  <b_m_subgroup_collapsed>  (47) 
0

>  <class>  (47) 
4

>  <isCentroid>  (47) 
flase

$$$$
ZINC000020133708
     RDKit          3D

 16 16  0  0  1  0  0  0  0  0999 V2000
    5.4048   12.4986  -23.0176 O   0  0  0  0  0  0  0  0  0  0  0  0
    5.8375   11.3271  -23.0093 C   0  0  0  0  0  0  0  0  0  0  0  0
    6.7184   10.9122  -23.7890 O   0  0  0  0  0  0  0  0  0  0  0  0
    5.3046   10.3493  -21.9570 C   0  0  0  0  0  0  0  0  0  0  0  0
    3.7955   10.5414  -21.6934 C   0  0  0  0  0  0  0  0  0  0  0  0
    3.1241    9.2964  -21.3359 N   0  0  0  0  0  0  0  0  0  0  0  0
    2.7263    8.3770  -22.3163 C   0  0  0  0  0  0  0  0  0  0  0  0
    3.1098    8.5010  -23.6697 C   0  0  0  0  0  0  0  0  0  0  0  0
    2.7006    7.5489  -24.6172 C   0  0  0  0  0  0  0  0  0  0  0  0
    1.9232    6.4468  -24.2170 C   0  0  0  0  0  0  0  0  0  0  0  0
    1.5286    6.3057  -22.8693 C   0  0  0  0  0  0  0  0  0  0  0  0
    0.6898    5.1066  -22.4513 C   0  0  0  0  0  0  0  0  0  0  0  0
    0.7169    4.9257  -21.1304 F   0  0  0  0  0  0  0  0  0  0  0  0
   -0.5720    5.2978  -22.8333 F   0  0  0  0  0  0  0  0  0  0  0  0
    1.1484    3.9996  -23.0349 F   0  0  0  0  0  0  0  0  0  0  0  0
    1.9254    7.2830  -21.9291 C   0  0  0  0  0  0  0  0  0  0  0  0
  1  2  2  0
  2  3  1  0
  2  4  1  0
  4  5  1  0
  5  6  1  0
  6  7  1  0
  7  8  2  0
  7 16  1  0
  8  9  1  0
  9 10  2  0
 10 11  1  0
 11 12  1  0
 11 16  2  0
 12 13  1  0
 12 14  1  0
 12 15  1  0
M  CHG  1   3  -1
M  END
>  <s_m_entry_id>  (48) 
12

>  <s_m_entry_name>  (48) 
ZINC000020133708.1

>  <s_m_Source_Path>  (48) 
/home/bhw/schrodinger/schrodinger/0995dock

>  <s_m_Source_File>  (48) 
0995dock_pv.maegz

>  <i_m_Source_File_Index>  (48) 
12

>  <zinc_id>  (48) 
ZINC000020133708

>  <smiles>  (48) 
O=C(O)CCNc1cccc(C(F)(F)F)c1

>  <chiral flag>  (48) 
0

>  <version>  (48) 
0

>  <i_lp_mmshare_version>  (48) 
44012

>  <s_epik_input>  (48) 
Tz1DKFtPSF0pW0NIMl1bQ0gyXVtOSF1jMVtjSF1bY0hdW2NIXWMoQyhGKShGKUYpW2NIXTE=

>  <s_epik_cmdline>  (48) 
J2VwaWtfcHl0aG9uJywgJy1waCcsICc3LjAnLCAnLXRuJywgJzgnLCAnLW1hJywgJzIwMCcsICctaW1hZScsICc8aW5maWxlLm1hZT4nLCAnLW9tYWUnLCAnPG91dGZpbGUubWFlPic=

>  <r_epik_Ionization_Penalty>  (48) 
0.0057

>  <r_epik_Ionization_Penalty_Charging>  (48) 
0.0048

>  <r_epik_Ionization_Penalty_Neutral>  (48) 
0.0009

>  <r_epik_State_Penalty>  (48) 
0.0000

>  <r_epik_Charging_Adjusted_Penalty>  (48) 
0.0048230201481072

>  <i_epik_Tot_Q>  (48) 
-1

>  <i_epik_Tot_abs_Q>  (48) 
1

>  <i_f3d_flags>  (48) 
0

>  <s_lp_Force_Field>  (48) 
OPLS_2005

>  <r_lp_Energy>  (48) 
9.993453

>  <b_lp_Chiralities_Consistent>  (48) 
1

>  <s_lp_Variant>  (48) 
ZINC000020133708-1

>  <s_m_job_name>  (48) 
zinc0995

>  <s_i_glide_gridfile>  (48) 
zincglide

>  <i_i_glide_lignum>  (48) 
14368

>  <i_i_glide_rotatable_bonds>  (48) 
5

>  <r_i_docking_score>  (48) 
-6.53212364349262

>  <r_i_glide_ligand_efficiency>  (48) 
-0.408257727718289

>  <r_i_glide_ligand_efficiency_sa>  (48) 
-1.02874500891828

>  <r_i_glide_ligand_efficiency_ln>  (48) 
-1.73146985383938

>  <r_i_glide_gscore>  (48) 
-6.53212364349262

>  <r_i_glide_lipo>  (48) 
-0.870340927046391

>  <r_i_glide_hbond>  (48) 
-0.297389730723161

>  <r_i_glide_metal>  (48) 
0

>  <r_i_glide_rewards>  (48) 
-4.00665724081685

>  <r_i_glide_evdw>  (48) 
-20.3736419677734

>  <r_i_glide_ecoul>  (48) 
-6.60485744476318

>  <r_i_glide_erotb>  (48) 
0.667098143952288

>  <r_i_glide_esite>  (48) 
-0.0154231737553545

>  <r_i_glide_emodel>  (48) 
-41.2365355569356

>  <r_i_glide_energy>  (48) 
-26.9784994125366

>  <r_i_glide_einternal>  (48) 
6.99038934707642

>  <i_i_glide_confnum>  (48) 
8

>  <i_i_glide_posenum>  (48) 
179

>  <r_i_glide_eff_state_penalty>  (48) 
0

>  <r_lp_tautomer_probability>  (48) 
1

>  <s_m_subgroup_title>  (48) 
0995dock_pv

>  <s_m_subgroupid>  (48) 
0995dock_pv

>  <b_m_subgroup_collapsed>  (48) 
0

>  <class>  (48) 
7

>  <isCentroid>  (48) 
flase

$$$$
ZINC000020210371
     RDKit          3D

 13 13  0  0  1  0  0  0  0  0999 V2000
    6.3047   10.5134  -23.4171 O   0  0  0  0  0  0  0  0  0  0  0  0
    5.5257   11.3812  -22.9732 C   0  0  0  0  0  0  0  0  0  0  0  0
    5.7617   12.6068  -23.0177 O   0  0  0  0  0  0  0  0  0  0  0  0
    4.2060   10.9759  -22.3155 C   0  0  0  0  0  0  0  0  0  0  0  0
    3.7557    9.1886  -22.5295 S   0  0  0  0  0  0  0  0  0  0  0  0
    3.5236    8.9133  -23.9520 O   0  0  0  0  0  0  0  0  0  0  0  0
    4.7237    8.3459  -21.8165 O   0  0  0  0  0  0  0  0  0  0  0  0
    2.1406    9.0639  -21.6182 C   0  0  0  0  0  0  0  0  0  0  0  0
    1.0032    9.8983  -22.2598 C   0  0  0  0  0  0  0  0  0  0  0  0
    0.4161    9.2702  -23.5381 C   0  0  0  0  0  0  0  0  0  0  0  0
    0.0064    7.8067  -23.3081 C   0  0  0  0  0  0  0  0  0  0  0  0
    1.1699    6.9737  -22.7460 C   0  0  0  0  0  0  0  0  0  0  0  0
    1.7103    7.5915  -21.4445 C   0  0  0  0  0  0  0  0  0  0  0  0
  1  2  2  0
  2  3  1  0
  2  4  1  0
  4  5  1  0
  5  6  2  0
  5  7  2  0
  5  8  1  0
  8  9  1  0
  8 13  1  0
  9 10  1  0
 10 11  1  0
 11 12  1  0
 12 13  1  0
M  CHG  1   3  -1
M  END
>  <s_m_entry_id>  (49) 
107

>  <s_m_entry_name>  (49) 
ZINC000020210371.1

>  <s_m_Source_Path>  (49) 
/home/bhw/schrodinger/schrodinger/0995dock

>  <s_m_Source_File>  (49) 
0995dock_pv.maegz

>  <i_m_Source_File_Index>  (49) 
107

>  <zinc_id>  (49) 
ZINC000020210371

>  <smiles>  (49) 
O=C(O)CS(=O)(=O)C1CCCCC1

>  <chiral flag>  (49) 
0

>  <version>  (49) 
0

>  <i_lp_mmshare_version>  (49) 
44012

>  <s_epik_input>  (49) 
Tz1DKFtPSF0pW0NIMl1TKD1PKSg9TylbQ0hdMVtDSDJdW0NIMl1bQ0gyXVtDSDJdW0NIMl0x

>  <s_epik_cmdline>  (49) 
J2VwaWtfcHl0aG9uJywgJy1waCcsICc3LjAnLCAnLXRuJywgJzgnLCAnLW1hJywgJzIwMCcsICctaW1hZScsICc8aW5maWxlLm1hZT4nLCAnLW9tYWUnLCAnPG91dGZpbGUubWFlPic=

>  <r_epik_Ionization_Penalty>  (49) 
0.0000

>  <r_epik_Ionization_Penalty_Charging>  (49) 
0.0000

>  <r_epik_Ionization_Penalty_Neutral>  (49) 
0.0000

>  <r_epik_State_Penalty>  (49) 
0.0000

>  <r_epik_Charging_Adjusted_Penalty>  (49) 
1.40130752499428e-05

>  <i_epik_Tot_Q>  (49) 
-1

>  <i_epik_Tot_abs_Q>  (49) 
1

>  <i_f3d_flags>  (49) 
0

>  <s_lp_Force_Field>  (49) 
OPLS_2005

>  <r_lp_Energy>  (49) 
7.135917

>  <b_lp_Chiralities_Consistent>  (49) 
1

>  <s_lp_Variant>  (49) 
ZINC000020210371-1

>  <s_m_job_name>  (49) 
zinc0995

>  <s_i_glide_gridfile>  (49) 
zincglide

>  <i_i_glide_lignum>  (49) 
14427

>  <i_i_glide_rotatable_bonds>  (49) 
3

>  <r_i_docking_score>  (49) 
-5.91621809093566

>  <r_i_glide_ligand_efficiency>  (49) 
-0.455093699302743

>  <r_i_glide_ligand_efficiency_sa>  (49) 
-1.0700776004188

>  <r_i_glide_ligand_efficiency_ln>  (49) 
-1.65955179098207

>  <r_i_glide_gscore>  (49) 
-5.91621809093566

>  <r_i_glide_lipo>  (49) 
-0.0629914404941968

>  <r_i_glide_hbond>  (49) 
-0.151456679412144

>  <r_i_glide_metal>  (49) 
0

>  <r_i_glide_rewards>  (49) 
-2.91234971947556

>  <r_i_glide_evdw>  (49) 
-16.5306091308594

>  <r_i_glide_ecoul>  (49) 
-14.460880279541

>  <r_i_glide_erotb>  (49) 
0.273726423145686

>  <r_i_glide_esite>  (49) 
-0.0674841762253305

>  <r_i_glide_emodel>  (49) 
-47.904337832715

>  <r_i_glide_energy>  (49) 
-30.9914894104004

>  <r_i_glide_einternal>  (49) 
0.482398241758347

>  <i_i_glide_confnum>  (49) 
4

>  <i_i_glide_posenum>  (49) 
271

>  <r_i_glide_eff_state_penalty>  (49) 
0

>  <r_lp_tautomer_probability>  (49) 
1

>  <s_m_subgroup_title>  (49) 
0995dock_pv

>  <s_m_subgroupid>  (49) 
0995dock_pv

>  <b_m_subgroup_collapsed>  (49) 
0

>  <class>  (49) 
5

>  <isCentroid>  (49) 
flase

$$$$
ZINC000021637422
     RDKit          3D

 19 19  0  0  1  0  0  0  0  0999 V2000
    2.7087    9.5309  -21.1311 C   0  0  0  0  0  0  0  0  0  0  0  0
    3.7807    9.1735  -22.1855 C   0  0  1  0  0  0  0  0  0  0  0  0
    2.9954    8.5136  -23.7015 S   0  0  0  0  0  0  0  0  0  0  0  0
    2.0985    7.0549  -23.2935 C   0  0  0  0  0  0  0  0  0  0  0  0
    0.8528    7.1215  -22.6436 C   0  0  0  0  0  0  0  0  0  0  0  0
    0.1930    5.9138  -22.3532 C   0  0  0  0  0  0  0  0  0  0  0  0
    0.7955    4.6989  -22.7367 C   0  0  0  0  0  0  0  0  0  0  0  0
    0.1204    3.3801  -22.4065 C   0  0  0  0  0  0  0  0  0  0  0  0
   -1.0609    3.3170  -23.0169 F   0  0  0  0  0  0  0  0  0  0  0  0
    0.8584    2.3436  -22.7958 F   0  0  0  0  0  0  0  0  0  0  0  0
   -0.0751    3.2973  -21.0911 F   0  0  0  0  0  0  0  0  0  0  0  0
    2.0323    4.7530  -23.4171 C   0  0  0  0  0  0  0  0  0  0  0  0
    2.6850    5.9055  -23.6826 N   0  0  0  0  0  0  0  0  0  0  0  0
    4.7232   10.3574  -22.5030 C   0  0  0  0  0  0  0  0  0  0  0  0
    5.1969   10.4656  -23.6369 O   0  0  0  0  0  0  0  0  0  0  0  0
    5.0289   11.1947  -21.4896 N   0  0  0  0  0  0  0  0  0  0  0  0
    5.6302   12.3950  -21.5764 C   0  0  0  0  0  0  0  0  0  0  0  0
    5.8861   12.9137  -20.3789 N   0  0  0  0  0  0  0  0  0  0  0  0
    5.9236   12.9856  -22.6147 O   0  0  0  0  0  0  0  0  0  0  0  0
  2  1  1  1
  2  3  1  0
  2 14  1  0
  3  4  1  0
  4  5  2  0
  4 13  1  0
  5  6  1  0
  6  7  2  0
  7  8  1  0
  7 12  1  0
  8  9  1  0
  8 10  1  0
  8 11  1  0
 12 13  2  0
 14 15  2  0
 14 16  1  0
 16 17  1  0
 17 18  1  0
 17 19  2  0
M  END
>  <s_m_entry_id>  (50) 
99

>  <s_m_entry_name>  (50) 
ZINC000021637422.1

>  <s_m_Source_Path>  (50) 
/home/bhw/schrodinger/schrodinger/0995dock

>  <s_m_Source_File>  (50) 
0995dock_pv.maegz

>  <i_m_Source_File_Index>  (50) 
99

>  <zinc_id>  (50) 
ZINC000021637422

>  <smiles>  (50) 
C[C@@H](Sc1ccc(C(F)(F)F)cn1)C(=O)NC(N)=O

>  <chiral flag>  (50) 
0

>  <version>  (50) 
0

>  <i_lp_mmshare_version>  (50) 
44012

>  <s_epik_input>  (50) 
W05IMl1DKD1PKVtOSF1DKD1PKVtDQEBIXShbQ0gzXSlTYzFbY0hdW2NIXWMoQyhGKShGKUYpW2NIXW4x

>  <s_epik_cmdline>  (50) 
J2VwaWtfcHl0aG9uJywgJy1waCcsICc3LjAnLCAnLXRuJywgJzgnLCAnLW1hJywgJzIwMCcsICctaW1hZScsICc8aW5maWxlLm1hZT4nLCAnLW9tYWUnLCAnPG91dGZpbGUubWFlPic=

>  <r_epik_Ionization_Penalty>  (50) 
0.0000

>  <r_epik_Ionization_Penalty_Charging>  (50) 
0.0000

>  <r_epik_Ionization_Penalty_Neutral>  (50) 
0.0000

>  <r_epik_State_Penalty>  (50) 
0.0000

>  <r_epik_Charging_Adjusted_Penalty>  (50) 
0

>  <i_epik_Tot_Q>  (50) 
0

>  <i_epik_Tot_abs_Q>  (50) 
0

>  <i_f3d_flags>  (50) 
0

>  <s_lp_Force_Field>  (50) 
OPLS_2005

>  <r_lp_Energy>  (50) 
1.335433

>  <b_lp_Chiralities_Consistent>  (50) 
1

>  <s_lp_Variant>  (50) 
ZINC000021637422-1

>  <s_m_job_name>  (50) 
zinc0995

>  <s_i_glide_gridfile>  (50) 
zincglide

>  <i_i_glide_lignum>  (50) 
14962

>  <i_i_glide_rotatable_bonds>  (50) 
6

>  <r_i_docking_score>  (50) 
-5.93405307707736

>  <r_i_glide_ligand_efficiency>  (50) 
-0.312318583004071

>  <r_i_glide_ligand_efficiency_sa>  (50) 
-0.833391420996609

>  <r_i_glide_ligand_efficiency_ln>  (50) 
-1.504409906813

>  <r_i_glide_gscore>  (50) 
-5.93405307707736

>  <r_i_glide_lipo>  (50) 
-0.955262350580107

>  <r_i_glide_hbond>  (50) 
-0.478987119327392

>  <r_i_glide_metal>  (50) 
0

>  <r_i_glide_rewards>  (50) 
-2.13128100162492

>  <r_i_glide_evdw>  (50) 
-27.5999755859375

>  <r_i_glide_ecoul>  (50) 
-11.0643129348755

>  <r_i_glide_erotb>  (50) 
0.849721570771419

>  <r_i_glide_esite>  (50) 
-0.178598456788159

>  <r_i_glide_emodel>  (50) 
-51.0835091217842

>  <r_i_glide_energy>  (50) 
-38.664288520813

>  <r_i_glide_einternal>  (50) 
5.57198810577393

>  <i_i_glide_confnum>  (50) 
1

>  <i_i_glide_posenum>  (50) 
249

>  <r_i_glide_eff_state_penalty>  (50) 
0

>  <r_lp_tautomer_probability>  (50) 
1

>  <s_m_subgroup_title>  (50) 
0995dock_pv

>  <s_m_subgroupid>  (50) 
0995dock_pv

>  <b_m_subgroup_collapsed>  (50) 
0

>  <class>  (50) 
7

>  <isCentroid>  (50) 
flase

$$$$
ZINC000022996459
     RDKit          3D

 17 17  0  0  1  0  0  0  0  0999 V2000
    5.9151   12.5308  -22.8412 O   0  0  0  0  0  0  0  0  0  0  0  0
    5.6125   11.3305  -23.0188 C   0  0  0  0  0  0  0  0  0  0  0  0
    6.4529   10.5163  -23.4559 O   0  0  0  0  0  0  0  0  0  0  0  0
    4.1999   10.8730  -22.7761 C   0  0  0  0  0  0  0  0  0  0  0  0
    3.2234   11.7882  -22.3275 C   0  0  0  0  0  0  0  0  0  0  0  0
    1.8863   11.3602  -22.2018 C   0  0  0  0  0  0  0  0  0  0  0  0
    0.8028   12.3088  -21.7055 C   0  0  0  0  0  0  0  0  0  0  0  0
   -0.3964   11.9611  -22.1768 F   0  0  0  0  0  0  0  0  0  0  0  0
    0.7667   12.2510  -20.3738 F   0  0  0  0  0  0  0  0  0  0  0  0
    1.0574   13.5642  -22.0741 F   0  0  0  0  0  0  0  0  0  0  0  0
    1.5794   10.0248  -22.5319 C   0  0  0  0  0  0  0  0  0  0  0  0
    2.6149    9.1782  -22.9732 C   0  0  0  0  0  0  0  0  0  0  0  0
    2.3354    7.7397  -23.3968 C   0  0  0  0  0  0  0  0  0  0  0  0
    3.0342    6.9132  -22.6258 F   0  0  0  0  0  0  0  0  0  0  0  0
    1.0430    7.4257  -23.2876 F   0  0  0  0  0  0  0  0  0  0  0  0
    2.7069    7.5667  -24.6663 F   0  0  0  0  0  0  0  0  0  0  0  0
    3.8985    9.5860  -23.0697 N   0  0  0  0  0  0  0  0  0  0  0  0
  1  2  2  0
  2  3  1  0
  2  4  1  0
  4  5  2  0
  4 17  1  0
  5  6  1  0
  6  7  1  0
  6 11  2  0
  7  8  1  0
  7  9  1  0
  7 10  1  0
 11 12  1  0
 12 13  1  0
 12 17  2  0
 13 14  1  0
 13 15  1  0
 13 16  1  0
M  CHG  1   3  -1
M  END
>  <s_m_entry_id>  (51) 
69

>  <s_m_entry_name>  (51) 
ZINC000022996459.1

>  <s_m_Source_Path>  (51) 
/home/bhw/schrodinger/schrodinger/0995dock

>  <s_m_Source_File>  (51) 
0995dock_pv.maegz

>  <i_m_Source_File_Index>  (51) 
69

>  <zinc_id>  (51) 
ZINC000022996459

>  <smiles>  (51) 
O=C(O)c1cc(C(F)(F)F)cc(C(F)(F)F)n1

>  <chiral flag>  (51) 
0

>  <version>  (51) 
0

>  <i_lp_mmshare_version>  (51) 
44012

>  <s_epik_input>  (51) 
Tz1DKFtPSF0pYzFbY0hdYyhDKEYpKEYpRilbY0hdYyhuMSlDKEYpKEYpRg==

>  <s_epik_cmdline>  (51) 
J2VwaWtfcHl0aG9uJywgJy1waCcsICc3LjAnLCAnLXRuJywgJzgnLCAnLW1hJywgJzIwMCcsICctaW1hZScsICc8aW5maWxlLm1hZT4nLCAnLW9tYWUnLCAnPG91dGZpbGUubWFlPic=

>  <r_epik_Ionization_Penalty>  (51) 
0.0000

>  <r_epik_Ionization_Penalty_Charging>  (51) 
0.0000

>  <r_epik_Ionization_Penalty_Neutral>  (51) 
0.0000

>  <r_epik_State_Penalty>  (51) 
0.0000

>  <r_epik_Charging_Adjusted_Penalty>  (51) 
2.77119933075871e-05

>  <i_epik_Tot_Q>  (51) 
-1

>  <i_epik_Tot_abs_Q>  (51) 
1

>  <i_f3d_flags>  (51) 
0

>  <s_lp_Force_Field>  (51) 
OPLS_2005

>  <r_lp_Energy>  (51) 
12.516467

>  <b_lp_Chiralities_Consistent>  (51) 
1

>  <s_lp_Variant>  (51) 
ZINC000022996459-1

>  <s_m_job_name>  (51) 
zinc0995

>  <s_i_glide_gridfile>  (51) 
zincglide

>  <i_i_glide_lignum>  (51) 
15262

>  <i_i_glide_rotatable_bonds>  (51) 
3

>  <r_i_docking_score>  (51) 
-6.0433227029028

>  <r_i_glide_ligand_efficiency>  (51) 
-0.355489570758988

>  <r_i_glide_ligand_efficiency_sa>  (51) 
-0.914063788100338

>  <r_i_glide_ligand_efficiency_ln>  (51) 
-1.57656831500745

>  <r_i_glide_gscore>  (51) 
-6.0433227029028

>  <r_i_glide_lipo>  (51) 
-0.0691878795388354

>  <r_i_glide_hbond>  (51) 
-0.230559252983914

>  <r_i_glide_metal>  (51) 
0

>  <r_i_glide_rewards>  (51) 
-3.48920264987695

>  <r_i_glide_evdw>  (51) 
-15.6881818771362

>  <r_i_glide_ecoul>  (51) 
-9.27921867370605

>  <r_i_glide_erotb>  (51) 
0

>  <r_i_glide_esite>  (51) 
-0.0780810255903793

>  <r_i_glide_emodel>  (51) 
-39.7779274357748

>  <r_i_glide_energy>  (51) 
-24.9674005508423

>  <r_i_glide_einternal>  (51) 
0.0131642119958997

>  <i_i_glide_confnum>  (51) 
1

>  <i_i_glide_posenum>  (51) 
187

>  <r_i_glide_eff_state_penalty>  (51) 
0

>  <r_lp_tautomer_probability>  (51) 
1

>  <s_m_subgroup_title>  (51) 
0995dock_pv

>  <s_m_subgroupid>  (51) 
0995dock_pv

>  <b_m_subgroup_collapsed>  (51) 
0

>  <class>  (51) 
7

>  <isCentroid>  (51) 
flase

$$$$
ZINC000031830140
     RDKit          3D

 14 14  0  0  1  0  0  0  0  0999 V2000
    3.2316    8.5338  -21.9425 C   0  0  0  0  0  0  0  0  0  0  0  0
    3.4013    8.5587  -23.4400 N   0  0  0  0  0  0  0  0  0  0  0  0
    4.3237    9.3135  -23.8170 O   0  0  0  0  0  0  0  0  0  0  0  0
    2.7219    7.7532  -24.2418 C   0  0  0  0  0  0  0  0  0  0  0  0
    1.8204    6.7138  -23.7698 C   0  0  0  0  0  0  0  0  0  0  0  0
    0.5491    7.0378  -23.2532 C   0  0  0  0  0  0  0  0  0  0  0  0
   -0.2859    6.0185  -22.7533 C   0  0  0  0  0  0  0  0  0  0  0  0
    0.1371    4.6702  -22.7796 C   0  0  0  0  0  0  0  0  0  0  0  0
   -0.7438    3.5641  -22.2191 C   0  0  0  0  0  0  0  0  0  0  0  0
   -0.7018    2.4985  -23.0161 F   0  0  0  0  0  0  0  0  0  0  0  0
   -0.2961    3.2185  -21.0131 F   0  0  0  0  0  0  0  0  0  0  0  0
   -2.0129    3.9575  -22.1112 F   0  0  0  0  0  0  0  0  0  0  0  0
    1.4028    4.3533  -23.3180 C   0  0  0  0  0  0  0  0  0  0  0  0
    2.2406    5.3699  -23.8151 C   0  0  0  0  0  0  0  0  0  0  0  0
  1  2  1  0
  2  3  1  0
  2  4  2  0
  4  5  1  0
  5  6  2  0
  5 14  1  0
  6  7  1  0
  7  8  2  0
  8  9  1  0
  8 13  1  0
  9 10  1  0
  9 11  1  0
  9 12  1  0
 13 14  2  0
M  CHG  2   2   1   3  -1
M  END
>  <s_m_entry_id>  (52) 
67

>  <s_m_entry_name>  (52) 
ZINC000031830140.1

>  <s_m_Source_Path>  (52) 
/home/bhw/schrodinger/schrodinger/0995dock

>  <s_m_Source_File>  (52) 
0995dock_pv.maegz

>  <i_m_Source_File_Index>  (52) 
67

>  <zinc_id>  (52) 
ZINC000031830140

>  <smiles>  (52) 
C/[N+]([O-])=C\c1ccc(C(F)(F)F)cc1

>  <chiral flag>  (52) 
0

>  <version>  (52) 
0

>  <i_lp_mmshare_version>  (52) 
44012

>  <s_epik_input>  (52) 
W0NIM10vW04rXShbTy1dKT1bQ0hdXGMxW2NIXVtjSF1jKEMoRikoRilGKVtjSF1bY0hdMQ==

>  <s_epik_cmdline>  (52) 
J2VwaWtfcHl0aG9uJywgJy1waCcsICc3LjAnLCAnLXRuJywgJzgnLCAnLW1hJywgJzIwMCcsICctaW1hZScsICc8aW5maWxlLm1hZT4nLCAnLW9tYWUnLCAnPG91dGZpbGUubWFlPic=

>  <r_epik_Ionization_Penalty>  (52) 
0.0357

>  <r_epik_Ionization_Penalty_Charging>  (52) 
0.0357

>  <r_epik_Ionization_Penalty_Neutral>  (52) 
0.0000

>  <r_epik_State_Penalty>  (52) 
0.0298

>  <r_epik_Charging_Adjusted_Penalty>  (52) 
0.065455754417382

>  <i_epik_Tot_Q>  (52) 
0

>  <i_epik_Tot_abs_Q>  (52) 
2

>  <s_epik_Chemistry_Notes>  (52) 
This compound has an imine and may undergo hydrolysis.

>  <i_f3d_flags>  (52) 
0

>  <s_lp_Force_Field>  (52) 
OPLS_2005

>  <r_lp_Energy>  (52) 
6.835304

>  <b_lp_Chiralities_Consistent>  (52) 
1

>  <s_lp_Variant>  (52) 
ZINC000031830140-1

>  <s_m_job_name>  (52) 
zinc0995

>  <s_i_glide_gridfile>  (52) 
zincglide

>  <i_i_glide_lignum>  (52) 
16141

>  <i_i_glide_rotatable_bonds>  (52) 
2

>  <r_i_docking_score>  (52) 
-6.06508929220286

>  <r_i_glide_ligand_efficiency>  (52) 
-0.433220663728775

>  <r_i_glide_ligand_efficiency_sa>  (52) 
-1.04412343044827

>  <r_i_glide_ligand_efficiency_ln>  (52) 
-1.6666649472225

>  <r_i_glide_gscore>  (52) 
-6.09488929220286

>  <r_i_glide_lipo>  (52) 
-1.14104904847621

>  <r_i_glide_hbond>  (52) 
-0.266648981063312

>  <r_i_glide_metal>  (52) 
0

>  <r_i_glide_rewards>  (52) 
-2.64037769380185

>  <r_i_glide_evdw>  (52) 
-14.3417625427246

>  <r_i_glide_ecoul>  (52) 
-11.4970035552979

>  <r_i_glide_erotb>  (52) 
0.397788250330344

>  <r_i_glide_esite>  (52) 
-0.00296315876092556

>  <r_i_glide_emodel>  (52) 
-39.4131353349759

>  <r_i_glide_energy>  (52) 
-25.8387660980225

>  <r_i_glide_einternal>  (52) 
0.626474440097809

>  <i_i_glide_confnum>  (52) 
4

>  <i_i_glide_posenum>  (52) 
329

>  <r_i_glide_eff_state_penalty>  (52) 
0.0298

>  <s_m_subgroup_title>  (52) 
0995dock_pv

>  <s_m_subgroupid>  (52) 
0995dock_pv

>  <b_m_subgroup_collapsed>  (52) 
0

>  <class>  (52) 
9

>  <isCentroid>  (52) 
flase

$$$$
ZINC000033380691
     RDKit          3D

 19 19  0  0  1  0  0  0  0  0999 V2000
    0.4785    7.7816  -20.2609 C   0  0  0  0  0  0  0  0  0  0  0  0
    0.9430    6.9272  -21.4268 C   0  0  0  0  0  0  0  0  0  0  0  0
    0.5106    5.6484  -21.4106 N   0  0  0  0  0  0  0  0  0  0  0  0
    0.8831    4.8245  -22.4145 C   0  0  0  0  0  0  0  0  0  0  0  0
    0.3130    3.4101  -22.3879 C   0  0  0  0  0  0  0  0  0  0  0  0
    0.1434    2.9793  -21.1363 F   0  0  0  0  0  0  0  0  0  0  0  0
   -0.8693    3.4055  -23.0057 F   0  0  0  0  0  0  0  0  0  0  0  0
    1.1209    2.5563  -23.0175 F   0  0  0  0  0  0  0  0  0  0  0  0
    1.6990    5.2562  -23.4801 C   0  0  0  0  0  0  0  0  0  0  0  0
    2.1341    6.5933  -23.5058 C   0  0  0  0  0  0  0  0  0  0  0  0
    1.7595    7.4604  -22.4506 C   0  0  0  0  0  0  0  0  0  0  0  0
    2.1259    8.8380  -22.3906 N   0  0  0  0  0  0  0  0  0  0  0  0
    3.1499    9.4630  -22.9948 C   0  0  0  0  0  0  0  0  0  0  0  0
    3.9233    8.9139  -23.7749 O   0  0  0  0  0  0  0  0  0  0  0  0
    3.1922   10.8678  -22.6171 C   0  0  0  0  0  0  0  0  0  0  0  0
    4.3329   11.5876  -22.5398 C   0  0  0  0  0  0  0  0  0  0  0  0
    5.7926   11.1128  -22.7667 C   0  0  0  0  0  0  0  0  0  0  0  0
    6.3235   10.5025  -21.8195 O   0  0  0  0  0  0  0  0  0  0  0  0
    6.3236   11.4241  -23.8542 O   0  0  0  0  0  0  0  0  0  0  0  0
  1  2  1  0
  2  3  2  0
  2 11  1  0
  3  4  1  0
  4  5  1  0
  4  9  2  0
  5  6  1  0
  5  7  1  0
  5  8  1  0
  9 10  1  0
 10 11  2  0
 11 12  1  0
 12 13  1  0
 13 14  2  0
 13 15  1  0
 15 16  2  0
 16 17  1  0
 17 18  2  0
 17 19  1  0
M  CHG  1  19  -1
M  END
>  <s_m_entry_id>  (53) 
66

>  <s_m_entry_name>  (53) 
ZINC000033380691.1

>  <s_m_Source_Path>  (53) 
/home/bhw/schrodinger/schrodinger/0995dock

>  <s_m_Source_File>  (53) 
0995dock_pv.maegz

>  <i_m_Source_File_Index>  (53) 
66

>  <zinc_id>  (53) 
ZINC000033380691

>  <smiles>  (53) 
Cc1nc(C(F)(F)F)ccc1NC(=O)/C=C\C(=O)O

>  <chiral flag>  (53) 
0

>  <version>  (53) 
0

>  <i_lp_mmshare_version>  (53) 
44012

>  <s_epik_input>  (53) 
W0NIM11jMW5jKEMoRikoRilGKVtjSF1bY0hdYzFbTkhdQyg9TykvW0NIXT1bQ0hdXEMoPU8pW09IXQ==

>  <s_epik_cmdline>  (53) 
J2VwaWtfcHl0aG9uJywgJy1waCcsICc3LjAnLCAnLXRuJywgJzgnLCAnLW1hJywgJzIwMCcsICctaW1hZScsICc8aW5maWxlLm1hZT4nLCAnLW9tYWUnLCAnPG91dGZpbGUubWFlPic=

>  <r_epik_Ionization_Penalty>  (53) 
0.0139

>  <r_epik_Ionization_Penalty_Charging>  (53) 
0.0001

>  <r_epik_Ionization_Penalty_Neutral>  (53) 
0.0137

>  <r_epik_State_Penalty>  (53) 
0.0000

>  <r_epik_Charging_Adjusted_Penalty>  (53) 
0.00011587129326281

>  <i_epik_Tot_Q>  (53) 
-1

>  <i_epik_Tot_abs_Q>  (53) 
1

>  <i_f3d_flags>  (53) 
0

>  <s_lp_Force_Field>  (53) 
OPLS_2005

>  <r_lp_Energy>  (53) 
11.269337

>  <b_lp_Chiralities_Consistent>  (53) 
1

>  <s_lp_Variant>  (53) 
ZINC000033380691-1

>  <s_m_job_name>  (53) 
zinc0995

>  <s_i_glide_gridfile>  (53) 
zincglide

>  <i_i_glide_lignum>  (53) 
16886

>  <i_i_glide_rotatable_bonds>  (53) 
5

>  <r_i_docking_score>  (53) 
-6.07276260747705

>  <r_i_glide_ligand_efficiency>  (53) 
-0.319619084604055

>  <r_i_glide_ligand_efficiency_sa>  (53) 
-0.852872091483383

>  <r_i_glide_ligand_efficiency_ln>  (53) 
-1.53957575197687

>  <r_i_glide_gscore>  (53) 
-6.07276260747705

>  <r_i_glide_lipo>  (53) 
-0.897697311183893

>  <r_i_glide_hbond>  (53) 
-0.593586744864166

>  <r_i_glide_metal>  (53) 
0

>  <r_i_glide_rewards>  (53) 
-2.54163271171522

>  <r_i_glide_evdw>  (53) 
-21.4258422851562

>  <r_i_glide_ecoul>  (53) 
-12.5653676986694

>  <r_i_glide_erotb>  (53) 
0.961250783390356

>  <r_i_glide_esite>  (53) 
-0.0449993540458968

>  <r_i_glide_emodel>  (53) 
-51.9445333380265

>  <r_i_glide_energy>  (53) 
-33.9912099838257

>  <r_i_glide_einternal>  (53) 
1.34359443187714

>  <i_i_glide_confnum>  (53) 
1

>  <i_i_glide_posenum>  (53) 
234

>  <r_i_glide_eff_state_penalty>  (53) 
0

>  <r_lp_tautomer_probability>  (53) 
1

>  <s_m_subgroup_title>  (53) 
0995dock_pv

>  <s_m_subgroupid>  (53) 
0995dock_pv

>  <b_m_subgroup_collapsed>  (53) 
0

>  <class>  (53) 
7

>  <isCentroid>  (53) 
flase

$$$$
ZINC000034535238
     RDKit          3D

 14 14  0  0  1  0  0  0  0  0999 V2000
    4.0053   12.7624  -22.5712 C   0  0  0  0  0  0  0  0  0  0  0  0
    4.2505   11.2502  -22.7262 C   0  0  2  0  0  0  0  0  0  0  0  0
    3.6758   10.4657  -21.5230 C   0  0  0  0  0  0  0  0  0  0  0  0
    3.5230    8.6727  -21.8170 S   0  0  0  0  0  0  0  0  0  0  0  0
    2.0785    8.6042  -22.9101 C   0  0  0  0  0  0  0  0  0  0  0  0
    1.5803    7.1739  -22.9410 C   0  0  0  0  0  0  0  0  0  0  0  0
    2.2667    6.2027  -23.6979 C   0  0  0  0  0  0  0  0  0  0  0  0
    1.8522    4.8588  -23.6598 C   0  0  0  0  0  0  0  0  0  0  0  0
    0.7362    4.4813  -22.8900 C   0  0  0  0  0  0  0  0  0  0  0  0
    0.0372    5.4519  -22.1476 C   0  0  0  0  0  0  0  0  0  0  0  0
    0.4622    6.7948  -22.1681 C   0  0  0  0  0  0  0  0  0  0  0  0
    5.7502   10.9841  -22.9505 C   0  0  0  0  0  0  0  0  0  0  0  0
    6.3237   10.1563  -22.2166 O   0  0  0  0  0  0  0  0  0  0  0  0
    6.3237   11.6043  -23.8733 O   0  0  0  0  0  0  0  0  0  0  0  0
  2  1  1  1
  2  3  1  0
  2 12  1  0
  3  4  1  0
  4  5  1  0
  5  6  1  0
  6  7  2  0
  6 11  1  0
  7  8  1  0
  8  9  2  0
  9 10  1  0
 10 11  2  0
 12 13  2  0
 12 14  1  0
M  CHG  1  14  -1
M  END
>  <s_m_entry_id>  (54) 
106

>  <s_m_entry_name>  (54) 
ZINC000034535238.1

>  <s_m_Source_Path>  (54) 
/home/bhw/schrodinger/schrodinger/0995dock

>  <s_m_Source_File>  (54) 
0995dock_pv.maegz

>  <i_m_Source_File_Index>  (54) 
106

>  <zinc_id>  (54) 
ZINC000034535238

>  <smiles>  (54) 
C[C@H](CSCc1ccccc1)C(=O)O

>  <chiral flag>  (54) 
0

>  <version>  (54) 
0

>  <i_lp_mmshare_version>  (54) 
44012

>  <s_epik_input>  (54) 
Tz1DKFtPSF0pW0NASF0oW0NIM10pW0NIMl1TW0NIMl1jMVtjSF1bY0hdW2NIXVtjSF1bY0hdMQ==

>  <s_epik_cmdline>  (54) 
J2VwaWtfcHl0aG9uJywgJy1waCcsICc3LjAnLCAnLXRuJywgJzgnLCAnLW1hJywgJzIwMCcsICctaW1hZScsICc8aW5maWxlLm1hZT4nLCAnLW9tYWUnLCAnPG91dGZpbGUubWFlPic=

>  <r_epik_Ionization_Penalty>  (54) 
0.0013

>  <r_epik_Ionization_Penalty_Charging>  (54) 
0.0013

>  <r_epik_Ionization_Penalty_Neutral>  (54) 
0.0000

>  <r_epik_State_Penalty>  (54) 
0.0009

>  <r_epik_Charging_Adjusted_Penalty>  (54) 
0.00223556740074693

>  <i_epik_Tot_Q>  (54) 
-1

>  <i_epik_Tot_abs_Q>  (54) 
1

>  <i_f3d_flags>  (54) 
0

>  <s_lp_Force_Field>  (54) 
OPLS_2005

>  <r_lp_Energy>  (54) 
8.187951

>  <b_lp_Chiralities_Consistent>  (54) 
1

>  <s_lp_Variant>  (54) 
ZINC000034535238-1

>  <s_m_job_name>  (54) 
zinc0995

>  <s_i_glide_gridfile>  (54) 
zincglide

>  <i_i_glide_lignum>  (54) 
17102

>  <i_i_glide_rotatable_bonds>  (54) 
5

>  <r_i_docking_score>  (54) 
-5.91975201730502

>  <r_i_glide_ligand_efficiency>  (54) 
-0.422839429807501

>  <r_i_glide_ligand_efficiency_sa>  (54) 
-1.01910317984232

>  <r_i_glide_ligand_efficiency_ln>  (54) 
-1.62672678144669

>  <r_i_glide_gscore>  (54) 
-5.92065201730502

>  <r_i_glide_lipo>  (54) 
-0.883097060362135

>  <r_i_glide_hbond>  (54) 
-0.386455304755345

>  <r_i_glide_metal>  (54) 
0

>  <r_i_glide_rewards>  (54) 
-2.75770212517701

>  <r_i_glide_evdw>  (54) 
-18.9962844848633

>  <r_i_glide_ecoul>  (54) 
-11.5895643234253

>  <r_i_glide_erotb>  (54) 
0.794851345746426

>  <r_i_glide_esite>  (54) 
0

>  <r_i_glide_emodel>  (54) 
-46.1351429142483

>  <r_i_glide_energy>  (54) 
-30.5858488082886

>  <r_i_glide_einternal>  (54) 
2.12653064727783

>  <i_i_glide_confnum>  (54) 
6

>  <i_i_glide_posenum>  (54) 
333

>  <r_i_glide_eff_state_penalty>  (54) 
0.0009

>  <s_m_subgroup_title>  (54) 
0995dock_pv

>  <s_m_subgroupid>  (54) 
0995dock_pv

>  <b_m_subgroup_collapsed>  (54) 
0

>  <class>  (54) 
4

>  <isCentroid>  (54) 
flase

$$$$
ZINC000035079289
     RDKit          3D

 17 17  0  0  1  0  0  0  0  0999 V2000
    4.7046   10.1399  -21.4176 C   0  0  0  0  0  0  0  0  0  0  0  0
    4.2956   10.5185  -22.8362 C   0  0  0  0  0  0  0  0  0  0  0  0
    3.0574   11.4453  -22.8116 C   0  0  0  0  0  0  0  0  0  0  0  0
    4.0547    9.3724  -23.6761 O   0  0  0  0  0  0  0  0  0  0  0  0
    3.0835    8.4215  -23.4285 C   0  0  0  0  0  0  0  0  0  0  0  0
    2.7243    7.5662  -24.4885 C   0  0  0  0  0  0  0  0  0  0  0  0
    1.8462    6.4979  -24.2358 C   0  0  0  0  0  0  0  0  0  0  0  0
    1.3377    6.3265  -22.9342 C   0  0  0  0  0  0  0  0  0  0  0  0
    0.4016    5.1767  -22.6064 C   0  0  0  0  0  0  0  0  0  0  0  0
   -0.8556    5.5580  -22.8226 F   0  0  0  0  0  0  0  0  0  0  0  0
    0.6685    4.1192  -23.3737 F   0  0  0  0  0  0  0  0  0  0  0  0
    0.5308    4.8131  -21.3303 F   0  0  0  0  0  0  0  0  0  0  0  0
    1.7176    7.2619  -21.9507 C   0  0  0  0  0  0  0  0  0  0  0  0
    2.5777    8.2759  -22.1829 N   0  0  0  0  0  0  0  0  0  0  0  0
    5.5218   11.2642  -23.4089 C   0  0  0  0  0  0  0  0  0  0  0  0
    6.4732   10.5686  -23.8167 O   0  0  0  0  0  0  0  0  0  0  0  0
    5.5257   12.5134  -23.4168 O   0  0  0  0  0  0  0  0  0  0  0  0
  1  2  1  0
  2  3  1  0
  2  4  1  0
  2 15  1  0
  4  5  1  0
  5  6  2  0
  5 14  1  0
  6  7  1  0
  7  8  2  0
  8  9  1  0
  8 13  1  0
  9 10  1  0
  9 11  1  0
  9 12  1  0
 13 14  2  0
 15 16  2  0
 15 17  1  0
M  CHG  1  17  -1
M  END
>  <s_m_entry_id>  (55) 
17

>  <s_m_entry_name>  (55) 
ZINC000035079289.1

>  <s_m_Source_Path>  (55) 
/home/bhw/schrodinger/schrodinger/0995dock

>  <s_m_Source_File>  (55) 
0995dock_pv.maegz

>  <i_m_Source_File_Index>  (55) 
17

>  <zinc_id>  (55) 
ZINC000035079289

>  <smiles>  (55) 
CC(C)(Oc1ccc(C(F)(F)F)cn1)C(=O)O

>  <chiral flag>  (55) 
0

>  <version>  (55) 
0

>  <i_lp_mmshare_version>  (55) 
44012

>  <s_epik_input>  (55) 
Tz1DKFtPSF0pQyhbQ0gzXSkoW0NIM10pT2MxW2NIXVtjSF1jKEMoRikoRilGKVtjSF1uMQ==

>  <s_epik_cmdline>  (55) 
J2VwaWtfcHl0aG9uJywgJy1waCcsICc3LjAnLCAnLXRuJywgJzgnLCAnLW1hJywgJzIwMCcsICctaW1hZScsICc8aW5maWxlLm1hZT4nLCAnLW9tYWUnLCAnPG91dGZpbGUubWFlPic=

>  <r_epik_Ionization_Penalty>  (55) 
0.0000

>  <r_epik_Ionization_Penalty_Charging>  (55) 
0.0000

>  <r_epik_Ionization_Penalty_Neutral>  (55) 
0.0000

>  <r_epik_State_Penalty>  (55) 
0.0000

>  <r_epik_Charging_Adjusted_Penalty>  (55) 
4.69851590943389e-05

>  <i_epik_Tot_Q>  (55) 
-1

>  <i_epik_Tot_abs_Q>  (55) 
1

>  <i_f3d_flags>  (55) 
0

>  <s_lp_Force_Field>  (55) 
OPLS_2005

>  <r_lp_Energy>  (55) 
10.760107

>  <b_lp_Chiralities_Consistent>  (55) 
1

>  <s_lp_Variant>  (55) 
ZINC000035079289-1

>  <s_m_job_name>  (55) 
zinc0995

>  <s_i_glide_gridfile>  (55) 
zincglide

>  <i_i_glide_lignum>  (55) 
17206

>  <i_i_glide_rotatable_bonds>  (55) 
4

>  <r_i_docking_score>  (55) 
-6.39501333924815

>  <r_i_glide_ligand_efficiency>  (55) 
-0.376177255249891

>  <r_i_glide_ligand_efficiency_sa>  (55) 
-0.967257650334906

>  <r_i_glide_ligand_efficiency_ln>  (55) 
-1.66831657026454

>  <r_i_glide_gscore>  (55) 
-6.39501333924815

>  <r_i_glide_lipo>  (55) 
-0.766699932994769

>  <r_i_glide_hbond>  (55) 
-0.599012681051047

>  <r_i_glide_metal>  (55) 
0

>  <r_i_glide_rewards>  (55) 
-3.21256529312733

>  <r_i_glide_evdw>  (55) 
-16.3853492736816

>  <r_i_glide_ecoul>  (55) 
-9.29607105255127

>  <r_i_glide_erotb>  (55) 
0.396942689491768

>  <r_i_glide_esite>  (55) 
0

>  <r_i_glide_emodel>  (55) 
-41.46279558309

>  <r_i_glide_energy>  (55) 
-25.6814203262329

>  <r_i_glide_einternal>  (55) 
1.50457286834717

>  <i_i_glide_confnum>  (55) 
1

>  <i_i_glide_posenum>  (55) 
40

>  <r_i_glide_eff_state_penalty>  (55) 
0

>  <r_lp_tautomer_probability>  (55) 
1

>  <s_m_subgroup_title>  (55) 
0995dock_pv

>  <s_m_subgroupid>  (55) 
0995dock_pv

>  <b_m_subgroup_collapsed>  (55) 
0

>  <class>  (55) 
7

>  <isCentroid>  (55) 
true

$$$$
ZINC000035569946
     RDKit          3D

 14 14  0  0  1  0  0  0  0  0999 V2000
    6.2734   10.1136  -22.0433 O   0  0  0  0  0  0  0  0  0  0  0  0
    5.7382   10.9135  -22.8374 C   0  0  0  0  0  0  0  0  0  0  0  0
    6.3237   11.4281  -23.8170 O   0  0  0  0  0  0  0  0  0  0  0  0
    4.2837   11.3160  -22.5748 C   0  0  0  0  0  0  0  0  0  0  0  0
    3.4428   10.0780  -22.2969 C   0  0  0  0  0  0  0  0  0  0  0  0
    3.0143    9.7844  -20.9882 C   0  0  0  0  0  0  0  0  0  0  0  0
    2.2372    8.6331  -20.7690 C   0  0  0  0  0  0  0  0  0  0  0  0
    1.8940    7.8298  -21.8708 C   0  0  0  0  0  0  0  0  0  0  0  0
    2.3423    8.2174  -23.1514 C   0  0  0  0  0  0  0  0  0  0  0  0
    1.9298    7.4313  -24.3855 C   0  0  0  0  0  0  0  0  0  0  0  0
    0.6784    7.7476  -24.7131 F   0  0  0  0  0  0  0  0  0  0  0  0
    2.7234    7.7135  -25.4169 F   0  0  0  0  0  0  0  0  0  0  0  0
    1.9951    6.1205  -24.1461 F   0  0  0  0  0  0  0  0  0  0  0  0
    3.1069    9.3132  -23.3590 N   0  0  0  0  0  0  0  0  0  0  0  0
  1  2  2  0
  2  3  1  0
  2  4  1  0
  4  5  1  0
  5  6  2  0
  5 14  1  0
  6  7  1  0
  7  8  2  0
  8  9  1  0
  9 10  1  0
  9 14  2  0
 10 11  1  0
 10 12  1  0
 10 13  1  0
M  CHG  1   3  -1
M  END
>  <s_m_entry_id>  (56) 
55

>  <s_m_entry_name>  (56) 
ZINC000035569946.1

>  <s_m_Source_Path>  (56) 
/home/bhw/schrodinger/schrodinger/0995dock

>  <s_m_Source_File>  (56) 
0995dock_pv.maegz

>  <i_m_Source_File_Index>  (56) 
55

>  <zinc_id>  (56) 
ZINC000035569946

>  <smiles>  (56) 
O=C(O)Cc1cccc(C(F)(F)F)n1

>  <chiral flag>  (56) 
0

>  <version>  (56) 
0

>  <i_lp_mmshare_version>  (56) 
44012

>  <s_epik_input>  (56) 
Tz1DKFtPSF0pW0NIMl1jMVtjSF1bY0hdW2NIXWMobjEpQyhGKShGKUY=

>  <s_epik_cmdline>  (56) 
J2VwaWtfcHl0aG9uJywgJy1waCcsICc3LjAnLCAnLXRuJywgJzgnLCAnLW1hJywgJzIwMCcsICctaW1hZScsICc8aW5maWxlLm1hZT4nLCAnLW9tYWUnLCAnPG91dGZpbGUubWFlPic=

>  <r_epik_Ionization_Penalty>  (56) 
0.0004

>  <r_epik_Ionization_Penalty_Charging>  (56) 
0.0004

>  <r_epik_Ionization_Penalty_Neutral>  (56) 
0.0000

>  <r_epik_State_Penalty>  (56) 
0.0002

>  <r_epik_Charging_Adjusted_Penalty>  (56) 
0.000602000784968364

>  <i_epik_Tot_Q>  (56) 
-1

>  <i_epik_Tot_abs_Q>  (56) 
1

>  <i_f3d_flags>  (56) 
0

>  <s_lp_Force_Field>  (56) 
OPLS_2005

>  <r_lp_Energy>  (56) 
9.994402

>  <b_lp_Chiralities_Consistent>  (56) 
1

>  <s_lp_Variant>  (56) 
ZINC000035569946-1

>  <s_m_job_name>  (56) 
zinc0995

>  <s_i_glide_gridfile>  (56) 
zincglide

>  <i_i_glide_lignum>  (56) 
17565

>  <i_i_glide_rotatable_bonds>  (56) 
3

>  <r_i_docking_score>  (56) 
-6.124721061687

>  <r_i_glide_ligand_efficiency>  (56) 
-0.437480075834786

>  <r_i_glide_ligand_efficiency_sa>  (56) 
-1.05438921957647

>  <r_i_glide_ligand_efficiency_ln>  (56) 
-1.68305154520183

>  <r_i_glide_gscore>  (56) 
-6.124921061687

>  <r_i_glide_lipo>  (56) 
-0.229660797470615

>  <r_i_glide_hbond>  (56) 
-0.373205207429196

>  <r_i_glide_metal>  (56) 
0

>  <r_i_glide_rewards>  (56) 
-3.39335021663723

>  <r_i_glide_evdw>  (56) 
-15.2497529983521

>  <r_i_glide_ecoul>  (56) 
-10.9498233795166

>  <r_i_glide_erotb>  (56) 
0.276256316695131

>  <r_i_glide_esite>  (56) 
0

>  <r_i_glide_emodel>  (56) 
-40.6179329046309

>  <r_i_glide_energy>  (56) 
-26.1995763778687

>  <r_i_glide_einternal>  (56) 
0.977929949760437

>  <i_i_glide_confnum>  (56) 
1

>  <i_i_glide_posenum>  (56) 
212

>  <r_i_glide_eff_state_penalty>  (56) 
0.0002

>  <s_m_subgroup_title>  (56) 
0995dock_pv

>  <s_m_subgroupid>  (56) 
0995dock_pv

>  <b_m_subgroup_collapsed>  (56) 
0

>  <class>  (56) 
7

>  <isCentroid>  (56) 
flase

$$$$
ZINC000036878378
     RDKit          3D

 17 17  0  0  1  0  0  0  0  0999 V2000
    5.5238   12.6215  -23.0161 O   0  0  0  0  0  0  0  0  0  0  0  0
    5.7448   11.3908  -23.0858 C   0  0  0  0  0  0  0  0  0  0  0  0
    6.7130   10.9138  -23.7221 O   0  0  0  0  0  0  0  0  0  0  0  0
    4.7740   10.4060  -22.4080 C   0  0  0  0  0  0  0  0  0  0  0  0
    5.5227    9.5366  -21.7371 F   0  0  0  0  0  0  0  0  0  0  0  0
    3.9938   11.0623  -21.5425 F   0  0  0  0  0  0  0  0  0  0  0  0
    4.0452    9.7272  -23.4173 O   0  0  0  0  0  0  0  0  0  0  0  0
    3.1935    8.6947  -23.0927 C   0  0  0  0  0  0  0  0  0  0  0  0
    2.7219    7.9151  -24.1693 C   0  0  0  0  0  0  0  0  0  0  0  0
    1.8750    6.8149  -23.9436 C   0  0  0  0  0  0  0  0  0  0  0  0
    1.4806    6.4914  -22.6321 C   0  0  0  0  0  0  0  0  0  0  0  0
    1.9318    7.2662  -21.5413 C   0  0  0  0  0  0  0  0  0  0  0  0
    1.5272    6.9173  -20.1160 C   0  0  0  0  0  0  0  0  0  0  0  0
    2.5798    7.0217  -19.3024 F   0  0  0  0  0  0  0  0  0  0  0  0
    0.5790    7.7579  -19.7054 F   0  0  0  0  0  0  0  0  0  0  0  0
    1.0618    5.6716  -20.0355 F   0  0  0  0  0  0  0  0  0  0  0  0
    2.7891    8.3630  -21.7757 C   0  0  0  0  0  0  0  0  0  0  0  0
  1  2  2  0
  2  3  1  0
  2  4  1  0
  4  5  1  0
  4  6  1  0
  4  7  1  0
  7  8  1  0
  8  9  2  0
  8 17  1  0
  9 10  1  0
 10 11  2  0
 11 12  1  0
 12 13  1  0
 12 17  2  0
 13 14  1  0
 13 15  1  0
 13 16  1  0
M  CHG  1   3  -1
M  END
>  <s_m_entry_id>  (57) 
48

>  <s_m_entry_name>  (57) 
ZINC000036878378.1

>  <s_m_Source_Path>  (57) 
/home/bhw/schrodinger/schrodinger/0995dock

>  <s_m_Source_File>  (57) 
0995dock_pv.maegz

>  <i_m_Source_File_Index>  (57) 
48

>  <zinc_id>  (57) 
ZINC000036878378

>  <smiles>  (57) 
O=C(O)C(F)(F)Oc1cccc(C(F)(F)F)c1

>  <chiral flag>  (57) 
0

>  <version>  (57) 
0

>  <i_lp_mmshare_version>  (57) 
44012

>  <s_epik_input>  (57) 
Tz1DKFtPSF0pQyhGKShGKU9jMVtjSF1bY0hdW2NIXWMoQyhGKShGKUYpW2NIXTE=

>  <s_epik_cmdline>  (57) 
J2VwaWtfcHl0aG9uJywgJy1waCcsICc3LjAnLCAnLXRuJywgJzgnLCAnLW1hJywgJzIwMCcsICctaW1hZScsICc8aW5maWxlLm1hZT4nLCAnLW9tYWUnLCAnPG91dGZpbGUubWFlPic=

>  <r_epik_Ionization_Penalty>  (57) 
0.0000

>  <r_epik_Ionization_Penalty_Charging>  (57) 
0.0000

>  <r_epik_Ionization_Penalty_Neutral>  (57) 
0.0000

>  <r_epik_State_Penalty>  (57) 
0.0000

>  <r_epik_Charging_Adjusted_Penalty>  (57) 
1.89529951910811e-07

>  <i_epik_Tot_Q>  (57) 
-1

>  <i_epik_Tot_abs_Q>  (57) 
1

>  <i_f3d_flags>  (57) 
0

>  <s_lp_Force_Field>  (57) 
OPLS_2005

>  <r_lp_Energy>  (57) 
16.595574

>  <b_lp_Chiralities_Consistent>  (57) 
1

>  <s_lp_Variant>  (57) 
ZINC000036878378-1

>  <s_m_job_name>  (57) 
zinc0995

>  <s_i_glide_gridfile>  (57) 
zincglide

>  <i_i_glide_lignum>  (57) 
18049

>  <i_i_glide_rotatable_bonds>  (57) 
4

>  <r_i_docking_score>  (57) 
-6.15938071200766

>  <r_i_glide_ligand_efficiency>  (57) 
-0.362316512471039

>  <r_i_glide_ligand_efficiency_sa>  (57) 
-0.931617777628453

>  <r_i_glide_ligand_efficiency_ln>  (57) 
-1.60684526509812

>  <r_i_glide_gscore>  (57) 
-6.15938071200766

>  <r_i_glide_lipo>  (57) 
-0.625866328224242

>  <r_i_glide_hbond>  (57) 
-0.362221859752208

>  <r_i_glide_metal>  (57) 
0

>  <r_i_glide_rewards>  (57) 
-3.40981037350666

>  <r_i_glide_evdw>  (57) 
-18.4113292694092

>  <r_i_glide_ecoul>  (57) 
-7.96171283721924

>  <r_i_glide_erotb>  (57) 
0.378599056986174

>  <r_i_glide_esite>  (57) 
-0.0252578184573792

>  <r_i_glide_emodel>  (57) 
-38.4857865579236

>  <r_i_glide_energy>  (57) 
-26.3730421066284

>  <r_i_glide_einternal>  (57) 
5.20127105712891

>  <i_i_glide_confnum>  (57) 
5

>  <i_i_glide_posenum>  (57) 
75

>  <r_i_glide_eff_state_penalty>  (57) 
0

>  <r_lp_tautomer_probability>  (57) 
1

>  <s_m_subgroup_title>  (57) 
0995dock_pv

>  <s_m_subgroupid>  (57) 
0995dock_pv

>  <b_m_subgroup_collapsed>  (57) 
0

>  <class>  (57) 
3

>  <isCentroid>  (57) 
flase

$$$$
ZINC000036915674
     RDKit          3D

 15 15  0  0  1  0  0  0  0  0999 V2000
    2.8975   11.5330  -21.4838 C   0  0  0  0  0  0  0  0  0  0  0  0
    3.5415   10.4668  -22.3911 C   0  0  1  0  0  0  0  0  0  0  0  0
    5.0718   10.3515  -22.2124 C   0  0  0  0  0  0  0  0  0  0  0  0
    5.8269   11.3619  -23.0746 C   0  0  0  0  0  0  0  0  0  0  0  0
    5.5187   12.5697  -23.0134 O   0  0  0  0  0  0  0  0  0  0  0  0
    6.7231   10.9134  -23.8167 O   0  0  0  0  0  0  0  0  0  0  0  0
    2.9158    9.1634  -22.2297 N   0  0  0  0  0  0  0  0  0  0  0  0
    2.3484    8.5861  -21.1127 C   0  0  0  0  0  0  0  0  0  0  0  0
    1.9087    7.3451  -21.4748 C   0  0  0  0  0  0  0  0  0  0  0  0
    2.2662    7.2362  -22.8490 C   0  0  0  0  0  0  0  0  0  0  0  0
    2.0391    6.0761  -23.7853 C   0  0  0  0  0  0  0  0  0  0  0  0
    1.0122    5.3377  -23.3626 F   0  0  0  0  0  0  0  0  0  0  0  0
    1.7805    6.5145  -25.0172 F   0  0  0  0  0  0  0  0  0  0  0  0
    3.1269    5.3116  -23.8169 F   0  0  0  0  0  0  0  0  0  0  0  0
    2.9048    8.3151  -23.2790 N   0  0  0  0  0  0  0  0  0  0  0  0
  2  1  1  1
  2  3  1  0
  2  7  1  0
  3  4  1  0
  4  5  2  0
  4  6  1  0
  7  8  1  0
  7 15  1  0
  8  9  2  0
  9 10  1  0
 10 11  1  0
 10 15  2  0
 11 12  1  0
 11 13  1  0
 11 14  1  0
M  CHG  1   6  -1
M  END
>  <s_m_entry_id>  (58) 
5

>  <s_m_entry_name>  (58) 
ZINC000036915674.1

>  <s_m_Source_Path>  (58) 
/home/bhw/schrodinger/schrodinger/0995dock

>  <s_m_Source_File>  (58) 
0995dock_pv.maegz

>  <i_m_Source_File_Index>  (58) 
5

>  <zinc_id>  (58) 
ZINC000036915674

>  <smiles>  (58) 
C[C@@H](CC(=O)O)n1ccc(C(F)(F)F)n1

>  <chiral flag>  (58) 
0

>  <version>  (58) 
0

>  <i_lp_mmshare_version>  (58) 
44012

>  <s_epik_input>  (58) 
Tz1DKFtPSF0pW0NIMl1bQ0BIXShbQ0gzXSluMVtjSF1bY0hdYyhuMSlDKEYpKEYpRg==

>  <s_epik_cmdline>  (58) 
J2VwaWtfcHl0aG9uJywgJy1waCcsICc3LjAnLCAnLXRuJywgJzgnLCAnLW1hJywgJzIwMCcsICctaW1hZScsICc8aW5maWxlLm1hZT4nLCAnLW9tYWUnLCAnPG91dGZpbGUubWFlPic=

>  <r_epik_Ionization_Penalty>  (58) 
0.0012

>  <r_epik_Ionization_Penalty_Charging>  (58) 
0.0012

>  <r_epik_Ionization_Penalty_Neutral>  (58) 
0.0000

>  <r_epik_State_Penalty>  (58) 
0.0008

>  <r_epik_Charging_Adjusted_Penalty>  (58) 
0.00192583883755576

>  <i_epik_Tot_Q>  (58) 
-1

>  <i_epik_Tot_abs_Q>  (58) 
1

>  <i_f3d_flags>  (58) 
0

>  <s_lp_Force_Field>  (58) 
OPLS_2005

>  <r_lp_Energy>  (58) 
7.617619

>  <b_lp_Chiralities_Consistent>  (58) 
1

>  <s_lp_Variant>  (58) 
ZINC000036915674-1

>  <s_m_job_name>  (58) 
zinc0995

>  <s_i_glide_gridfile>  (58) 
zincglide

>  <i_i_glide_lignum>  (58) 
18059

>  <i_i_glide_rotatable_bonds>  (58) 
4

>  <r_i_docking_score>  (58) 
-6.64431852355513

>  <r_i_glide_ligand_efficiency>  (58) 
-0.442954568237009

>  <r_i_glide_ligand_efficiency_sa>  (58) 
-1.09241990357984

>  <r_i_glide_ligand_efficiency_ln>  (58) 
-1.79186315265638

>  <r_i_glide_gscore>  (58) 
-6.64511852355513

>  <r_i_glide_lipo>  (58) 
-0.513028817221877

>  <r_i_glide_hbond>  (58) 
-0.30553950903386

>  <r_i_glide_metal>  (58) 
0

>  <r_i_glide_rewards>  (58) 
-4.18273756929623

>  <r_i_glide_evdw>  (58) 
-18.3100528717041

>  <r_i_glide_ecoul>  (58) 
-7.94826793670654

>  <r_i_glide_erotb>  (58) 
0.482922676970241

>  <r_i_glide_esite>  (58) 
-0.0189924708822211

>  <r_i_glide_emodel>  (58) 
-41.529123666315

>  <r_i_glide_energy>  (58) 
-26.2583208084106

>  <r_i_glide_einternal>  (58) 
2.87772917747498

>  <i_i_glide_confnum>  (58) 
1

>  <i_i_glide_posenum>  (58) 
326

>  <r_i_glide_eff_state_penalty>  (58) 
0.0008

>  <r_lp_tautomer_probability>  (58) 
1

>  <s_m_subgroup_title>  (58) 
0995dock_pv

>  <s_m_subgroupid>  (58) 
0995dock_pv

>  <b_m_subgroup_collapsed>  (58) 
0

>  <class>  (58) 
10

>  <isCentroid>  (58) 
true

$$$$
ZINC000039365921
     RDKit          3D

 17 17  0  0  1  0  0  0  0  0999 V2000
    4.7207   10.1135  -21.4170 C   0  0  0  0  0  0  0  0  0  0  0  0
    4.2489   10.5515  -22.7978 C   0  0  0  0  0  0  0  0  0  0  0  0
    3.0528   11.5288  -22.7035 C   0  0  0  0  0  0  0  0  0  0  0  0
    3.9397    9.4230  -23.6384 O   0  0  0  0  0  0  0  0  0  0  0  0
    2.9675    8.4758  -23.3710 C   0  0  0  0  0  0  0  0  0  0  0  0
    2.2528    8.3223  -22.1579 C   0  0  0  0  0  0  0  0  0  0  0  0
    1.3886    7.2255  -21.9686 C   0  0  0  0  0  0  0  0  0  0  0  0
    1.2148    6.2632  -22.9846 C   0  0  0  0  0  0  0  0  0  0  0  0
    0.3237    5.0518  -22.7522 C   0  0  0  0  0  0  0  0  0  0  0  0
    0.6823    4.0354  -23.5381 F   0  0  0  0  0  0  0  0  0  0  0  0
    0.4088    4.6473  -21.4843 F   0  0  0  0  0  0  0  0  0  0  0  0
   -0.9410    5.3757  -23.0170 F   0  0  0  0  0  0  0  0  0  0  0  0
    1.8726    6.4462  -24.2170 C   0  0  0  0  0  0  0  0  0  0  0  0
    2.7237    7.5492  -24.4063 C   0  0  0  0  0  0  0  0  0  0  0  0
    5.4799   11.2640  -23.4059 C   0  0  0  0  0  0  0  0  0  0  0  0
    6.4057   10.5364  -23.8170 O   0  0  0  0  0  0  0  0  0  0  0  0
    5.5237   12.5135  -23.4170 O   0  0  0  0  0  0  0  0  0  0  0  0
  1  2  1  0
  2  3  1  0
  2  4  1  0
  2 15  1  0
  4  5  1  0
  5  6  2  0
  5 14  1  0
  6  7  1  0
  7  8  2  0
  8  9  1  0
  8 13  1  0
  9 10  1  0
  9 11  1  0
  9 12  1  0
 13 14  2  0
 15 16  2  0
 15 17  1  0
M  CHG  1  17  -1
M  END
>  <s_m_entry_id>  (59) 
39

>  <s_m_entry_name>  (59) 
ZINC000039365921.1

>  <s_m_Source_Path>  (59) 
/home/bhw/schrodinger/schrodinger/0995dock

>  <s_m_Source_File>  (59) 
0995dock_pv.maegz

>  <i_m_Source_File_Index>  (59) 
39

>  <zinc_id>  (59) 
ZINC000039365921

>  <smiles>  (59) 
CC(C)(Oc1ccc(C(F)(F)F)cc1)C(=O)O

>  <chiral flag>  (59) 
0

>  <version>  (59) 
0

>  <i_lp_mmshare_version>  (59) 
44012

>  <s_epik_input>  (59) 
Tz1DKFtPSF0pQyhbQ0gzXSkoW0NIM10pT2MxW2NIXVtjSF1jKEMoRikoRilGKVtjSF1bY0hdMQ==

>  <s_epik_cmdline>  (59) 
J2VwaWtfcHl0aG9uJywgJy1waCcsICc3LjAnLCAnLXRuJywgJzgnLCAnLW1hJywgJzIwMCcsICctaW1hZScsICc8aW5maWxlLm1hZT4nLCAnLW9tYWUnLCAnPG91dGZpbGUubWFlPic=

>  <r_epik_Ionization_Penalty>  (59) 
0.0001

>  <r_epik_Ionization_Penalty_Charging>  (59) 
0.0001

>  <r_epik_Ionization_Penalty_Neutral>  (59) 
0.0000

>  <r_epik_State_Penalty>  (59) 
0.0000

>  <r_epik_Charging_Adjusted_Penalty>  (59) 
6.32054833524393e-05

>  <i_epik_Tot_Q>  (59) 
-1

>  <i_epik_Tot_abs_Q>  (59) 
1

>  <i_f3d_flags>  (59) 
0

>  <s_lp_Force_Field>  (59) 
OPLS_2005

>  <r_lp_Energy>  (59) 
17.868025

>  <b_lp_Chiralities_Consistent>  (59) 
1

>  <s_lp_Variant>  (59) 
ZINC000039365921-1

>  <s_m_job_name>  (59) 
zinc0995

>  <s_i_glide_gridfile>  (59) 
zincglide

>  <i_i_glide_lignum>  (59) 
18496

>  <i_i_glide_rotatable_bonds>  (59) 
4

>  <r_i_docking_score>  (59) 
-6.2329610765393

>  <r_i_glide_ligand_efficiency>  (59) 
-0.366644769208194

>  <r_i_glide_ligand_efficiency_sa>  (59) 
-0.942746944485832

>  <r_i_glide_ligand_efficiency_ln>  (59) 
-1.62604074365027

>  <r_i_glide_gscore>  (59) 
-6.2329610765393

>  <r_i_glide_lipo>  (59) 
-0.739585124974503

>  <r_i_glide_hbond>  (59) 
-0.486398630763516

>  <r_i_glide_metal>  (59) 
0

>  <r_i_glide_rewards>  (59) 
-3.22362246686727

>  <r_i_glide_evdw>  (59) 
-16.5879344940186

>  <r_i_glide_ecoul>  (59) 
-9.02414417266846

>  <r_i_glide_erotb>  (59) 
0.399663496667187

>  <r_i_glide_esite>  (59) 
0

>  <r_i_glide_emodel>  (59) 
-40.6683545288223

>  <r_i_glide_energy>  (59) 
-25.612078666687

>  <r_i_glide_einternal>  (59) 
1.39533472061157

>  <i_i_glide_confnum>  (59) 
1

>  <i_i_glide_posenum>  (59) 
87

>  <r_i_glide_eff_state_penalty>  (59) 
0

>  <r_lp_tautomer_probability>  (59) 
1

>  <s_m_subgroup_title>  (59) 
0995dock_pv

>  <s_m_subgroupid>  (59) 
0995dock_pv

>  <b_m_subgroup_collapsed>  (59) 
0

>  <class>  (59) 
3

>  <isCentroid>  (59) 
flase

$$$$
ZINC000040387204
     RDKit          3D

 17 18  0  0  1  0  0  0  0  0999 V2000
    6.0543   12.5359  -21.2699 C   0  0  0  0  0  0  0  0  0  0  0  0
    5.2824   11.5760  -22.6308 S   0  0  0  0  0  0  0  0  0  0  0  0
    4.0597   12.2979  -23.0168 O   0  0  0  0  0  0  0  0  0  0  0  0
    6.3239   11.3132  -23.6380 O   0  0  0  0  0  0  0  0  0  0  0  0
    4.9435   10.2052  -21.7498 N   0  0  0  0  0  0  0  0  0  0  0  0
    4.3244    9.2065  -22.2181 C   0  0  0  0  0  0  0  0  0  0  0  0
    4.0040    8.1441  -21.4171 N   0  0  0  0  0  0  0  0  0  0  0  0
    2.6253    7.7002  -21.4755 C   0  0  0  0  0  0  0  0  0  0  0  0
    2.3880    7.3295  -22.8936 N   0  0  0  0  0  0  0  0  0  0  0  0
    1.1927    6.4895  -23.1694 C   0  0  0  0  0  0  0  0  0  0  0  0
    1.4852    5.0148  -22.8209 C   0  0  0  0  0  0  0  0  0  0  0  0
    0.2905    4.1069  -23.1335 C   0  0  0  0  0  0  0  0  0  0  0  0
   -0.9804    4.5966  -22.4215 C   0  0  0  0  0  0  0  0  0  0  0  0
   -1.2888    6.0642  -22.7646 C   0  0  0  0  0  0  0  0  0  0  0  0
   -0.0913    6.9817  -22.4616 C   0  0  0  0  0  0  0  0  0  0  0  0
    2.5849    8.5043  -23.7881 C   0  0  0  0  0  0  0  0  0  0  0  0
    3.9110    9.0682  -23.5134 N   0  0  0  0  0  0  0  0  0  0  0  0
  1  2  1  0
  2  3  2  0
  2  4  2  0
  2  5  1  0
  5  6  2  3
  6  7  1  0
  6 17  1  0
  7  8  1  0
  8  9  1  0
  9 10  1  0
  9 16  1  0
 10 11  1  0
 10 15  1  0
 11 12  1  0
 12 13  1  0
 13 14  1  0
 14 15  1  0
 16 17  1  0
M  CHG  3   7  -1   9   1  17  -1
M  END
>  <s_m_entry_id>  (60) 
113

>  <s_m_entry_name>  (60) 
ZINC000040387204.1

>  <s_m_Source_Path>  (60) 
/home/bhw/schrodinger/schrodinger/0995dock

>  <s_m_Source_File>  (60) 
0995dock_pv.maegz

>  <i_m_Source_File_Index>  (60) 
113

>  <zinc_id>  (60) 
ZINC000040387204

>  <smiles>  (60) 
CS(=O)(=O)NC1=NCN(C2CCCCC2)CN1

>  <chiral flag>  (60) 
0

>  <version>  (60) 
0

>  <i_lp_mmshare_version>  (60) 
44012

>  <s_epik_input>  (60) 
W0NIM11TKD1PKSg9TylbTkhdQzE9TltDSDJdTihbQ0gyXVtOSF0xKVtDSF0yW0NIMl1bQ0gyXVtDSDJdW0NIMl1bQ0gyXTI=

>  <s_epik_cmdline>  (60) 
J2VwaWtfcHl0aG9uJywgJy1waCcsICc3LjAnLCAnLXRuJywgJzgnLCAnLW1hJywgJzIwMCcsICctaW1hZScsICc8aW5maWxlLm1hZT4nLCAnLW9tYWUnLCAnPG91dGZpbGUubWFlPic=

>  <r_epik_Ionization_Penalty>  (60) 
0.2368

>  <r_epik_Ionization_Penalty_Charging>  (60) 
0.2368

>  <r_epik_Ionization_Penalty_Neutral>  (60) 
0.0000

>  <r_epik_State_Penalty>  (60) 
0.4603

>  <r_epik_Charging_Adjusted_Penalty>  (60) 
0.69710366200377

>  <i_epik_Tot_Q>  (60) 
-1

>  <i_epik_Tot_abs_Q>  (60) 
3

>  <s_epik_Chemistry_Notes>  (60) 
This compound has an imine and may undergo hydrolysis. This compound contains an acetal/aminal-like group ( X-CH(R)-Y where X, Y are N, S, or O) that may be acid/base labile, releasing an aldehyde.

>  <i_f3d_flags>  (60) 
0

>  <s_lp_Force_Field>  (60) 
OPLS_2005

>  <r_lp_Energy>  (60) 
16.543569

>  <b_lp_Chiralities_Consistent>  (60) 
1

>  <s_lp_Variant>  (60) 
ZINC000040387204-1

>  <s_m_job_name>  (60) 
zinc0995

>  <s_i_glide_gridfile>  (60) 
zincglide

>  <i_i_glide_lignum>  (60) 
18715

>  <i_i_glide_rotatable_bonds>  (60) 
2

>  <r_i_docking_score>  (60) 
-5.89161574393865

>  <r_i_glide_ligand_efficiency>  (60) 
-0.346565631996391

>  <r_i_glide_ligand_efficiency_sa>  (60) 
-0.891117828665582

>  <r_i_glide_ligand_efficiency_ln>  (60) 
-1.53699134776158

>  <r_i_glide_gscore>  (60) 
-6.35191574393865

>  <r_i_glide_lipo>  (60) 
-0.644662052996558

>  <r_i_glide_hbond>  (60) 
-0.141665983667934

>  <r_i_glide_metal>  (60) 
0

>  <r_i_glide_rewards>  (60) 
-2.60582928026009

>  <r_i_glide_evdw>  (60) 
-24.6883411407471

>  <r_i_glide_ecoul>  (60) 
-13.3822498321533

>  <r_i_glide_erotb>  (60) 
0.368037248673925

>  <r_i_glide_esite>  (60) 
-0.086041143827647

>  <r_i_glide_emodel>  (60) 
-53.694544469544

>  <r_i_glide_energy>  (60) 
-38.0705909729004

>  <r_i_glide_einternal>  (60) 
3.33233094215393

>  <i_i_glide_confnum>  (60) 
7

>  <i_i_glide_posenum>  (60) 
54

>  <r_i_glide_eff_state_penalty>  (60) 
0.4603

>  <s_m_subgroup_title>  (60) 
0995dock_pv

>  <s_m_subgroupid>  (60) 
0995dock_pv

>  <b_m_subgroup_collapsed>  (60) 
0

>  <class>  (60) 
9

>  <isCentroid>  (60) 
flase

$$$$
ZINC000040448145
     RDKit          3D

 15 15  0  0  1  0  0  0  0  0999 V2000
    6.3236   11.3857  -23.8170 O   0  0  0  0  0  0  0  0  0  0  0  0
    5.6103   10.9132  -22.9018 C   0  0  0  0  0  0  0  0  0  0  0  0
    5.9237    9.9276  -22.2024 O   0  0  0  0  0  0  0  0  0  0  0  0
    4.2687   11.5989  -22.6157 C   0  0  0  0  0  0  0  0  0  0  0  0
    3.5020   11.0609  -21.4923 N   0  0  0  0  0  0  0  0  0  0  0  0
    2.8314    9.8350  -21.6148 C   0  0  0  0  0  0  0  0  0  0  0  0
    2.3298    9.2165  -20.4517 C   0  0  0  0  0  0  0  0  0  0  0  0
    1.6938    7.9670  -20.5652 C   0  0  0  0  0  0  0  0  0  0  0  0
    1.5759    7.3787  -21.8369 C   0  0  0  0  0  0  0  0  0  0  0  0
    2.0899    8.0778  -22.9509 C   0  0  0  0  0  0  0  0  0  0  0  0
    1.9827    7.5126  -24.3599 C   0  0  0  0  0  0  0  0  0  0  0  0
    3.1237    7.7136  -25.0171 F   0  0  0  0  0  0  0  0  0  0  0  0
    1.7435    6.2006  -24.3327 F   0  0  0  0  0  0  0  0  0  0  0  0
    0.9943    8.1139  -25.0215 F   0  0  0  0  0  0  0  0  0  0  0  0
    2.6909    9.2831  -22.8409 N   0  0  0  0  0  0  0  0  0  0  0  0
  1  2  2  0
  2  3  1  0
  2  4  1  0
  4  5  1  0
  5  6  1  0
  6  7  2  0
  6 15  1  0
  7  8  1  0
  8  9  2  0
  9 10  1  0
 10 11  1  0
 10 15  2  0
 11 12  1  0
 11 13  1  0
 11 14  1  0
M  CHG  1   3  -1
M  END
>  <s_m_entry_id>  (61) 
82

>  <s_m_entry_name>  (61) 
ZINC000040448145.1

>  <s_m_Source_Path>  (61) 
/home/bhw/schrodinger/schrodinger/0995dock

>  <s_m_Source_File>  (61) 
0995dock_pv.maegz

>  <i_m_Source_File_Index>  (61) 
82

>  <zinc_id>  (61) 
ZINC000040448145

>  <smiles>  (61) 
O=C(O)CNc1cccc(C(F)(F)F)n1

>  <chiral flag>  (61) 
0

>  <version>  (61) 
0

>  <i_lp_mmshare_version>  (61) 
44012

>  <s_epik_input>  (61) 
Tz1DKFtPSF0pW0NIMl1bTkhdYzFbY0hdW2NIXVtjSF1jKG4xKUMoRikoRilG

>  <s_epik_cmdline>  (61) 
J2VwaWtfcHl0aG9uJywgJy1waCcsICc3LjAnLCAnLXRuJywgJzgnLCAnLW1hJywgJzIwMCcsICctaW1hZScsICc8aW5maWxlLm1hZT4nLCAnLW9tYWUnLCAnPG91dGZpbGUubWFlPic=

>  <r_epik_Ionization_Penalty>  (61) 
0.0044

>  <r_epik_Ionization_Penalty_Charging>  (61) 
0.0044

>  <r_epik_Ionization_Penalty_Neutral>  (61) 
0.0000

>  <r_epik_State_Penalty>  (61) 
0.0032

>  <r_epik_Charging_Adjusted_Penalty>  (61) 
0.00758568289789947

>  <i_epik_Tot_Q>  (61) 
-1

>  <i_epik_Tot_abs_Q>  (61) 
1

>  <i_f3d_flags>  (61) 
0

>  <s_lp_Force_Field>  (61) 
OPLS_2005

>  <r_lp_Energy>  (61) 
1.986735

>  <b_lp_Chiralities_Consistent>  (61) 
1

>  <s_lp_Variant>  (61) 
ZINC000040448145-1

>  <s_m_job_name>  (61) 
zinc0995

>  <s_i_glide_gridfile>  (61) 
zincglide

>  <i_i_glide_lignum>  (61) 
18735

>  <i_i_glide_rotatable_bonds>  (61) 
4

>  <r_i_docking_score>  (61) 
-5.98718633582673

>  <r_i_glide_ligand_efficiency>  (61) 
-0.399145755721782

>  <r_i_glide_ligand_efficiency_sa>  (61) 
-0.984378081290238

>  <r_i_glide_ligand_efficiency_ln>  (61) 
-1.61464543658202

>  <r_i_glide_gscore>  (61) 
-5.99038633582673

>  <r_i_glide_lipo>  (61) 
-0.24395492482595

>  <r_i_glide_hbond>  (61) 
-0.374300633068965

>  <r_i_glide_metal>  (61) 
0

>  <r_i_glide_rewards>  (61) 
-3.45422079212099

>  <r_i_glide_evdw>  (61) 
-17.4906406402588

>  <r_i_glide_ecoul>  (61) 
-10.1301689147949

>  <r_i_glide_erotb>  (61) 
0.490443578582846

>  <r_i_glide_esite>  (61) 
-0.0142961951614995

>  <r_i_glide_emodel>  (61) 
-41.7726336566441

>  <r_i_glide_energy>  (61) 
-27.6208095550537

>  <r_i_glide_einternal>  (61) 
2.92209887504578

>  <i_i_glide_confnum>  (61) 
5

>  <i_i_glide_posenum>  (61) 
354

>  <r_i_glide_eff_state_penalty>  (61) 
0.0032

>  <r_lp_tautomer_probability>  (61) 
0.999999772200052

>  <s_m_subgroup_title>  (61) 
0995dock_pv

>  <s_m_subgroupid>  (61) 
0995dock_pv

>  <b_m_subgroup_collapsed>  (61) 
0

>  <class>  (61) 
7

>  <isCentroid>  (61) 
flase

$$$$
ZINC000040955169
     RDKit          3D

 14 14  0  0  1  0  0  0  0  0999 V2000
    4.4122   12.7780  -20.8247 C   0  0  0  0  0  0  0  0  0  0  0  0
    3.8761   12.4242  -22.2250 C   0  0  0  0  0  0  0  0  0  0  0  0
    4.3787   11.0962  -22.8422 C   0  0  1  0  0  0  0  0  0  0  0  0
    5.8956   11.0979  -23.0607 C   0  0  0  0  0  0  0  0  0  0  0  0
    6.3240   11.3136  -24.2170 O   0  0  0  0  0  0  0  0  0  0  0  0
    6.6328   10.9273  -22.0746 O   0  0  0  0  0  0  0  0  0  0  0  0
    3.7391    9.6757  -21.8171 S   0  0  0  0  0  0  0  0  0  0  0  0
    4.7354    8.5125  -21.8257 O   0  0  0  0  0  0  0  0  0  0  0  0
    2.3754    9.2017  -22.9371 C   0  0  0  0  0  0  0  0  0  0  0  0
    2.5730    8.2057  -23.9138 C   0  0  0  0  0  0  0  0  0  0  0  0
    1.5223    7.8627  -24.7861 C   0  0  0  0  0  0  0  0  0  0  0  0
    0.2776    8.5135  -24.6769 C   0  0  0  0  0  0  0  0  0  0  0  0
    0.0814    9.5036  -23.6933 C   0  0  0  0  0  0  0  0  0  0  0  0
    1.1310    9.8495  -22.8194 C   0  0  0  0  0  0  0  0  0  0  0  0
  1  2  1  0
  3  2  1  1
  3  4  1  0
  3  7  1  0
  4  5  2  0
  4  6  1  0
  7  8  2  0
  7  9  1  0
  9 10  2  0
  9 14  1  0
 10 11  1  0
 11 12  2  0
 12 13  1  0
 13 14  2  0
M  CHG  1   6  -1
M  END
>  <s_m_entry_id>  (62) 
80

>  <s_m_entry_name>  (62) 
ZINC000040955169.1

>  <s_m_Source_Path>  (62) 
/home/bhw/schrodinger/schrodinger/0995dock

>  <s_m_Source_File>  (62) 
0995dock_pv.maegz

>  <i_m_Source_File_Index>  (62) 
80

>  <zinc_id>  (62) 
ZINC000040955169

>  <smiles>  (62) 
CC[C@@H](C(=O)O)[S@@](=O)c1ccccc1

>  <chiral flag>  (62) 
0

>  <version>  (62) 
0

>  <i_lp_mmshare_version>  (62) 
44012

>  <s_epik_input>  (62) 
W0NIM11bQ0gyXVtDQEBIXShDKD1PKVtPSF0pW1NAQF0oPU8pYzFbY0hdW2NIXVtjSF1bY0hdW2NIXTE=

>  <s_epik_cmdline>  (62) 
J2VwaWtfcHl0aG9uJywgJy1waCcsICc3LjAnLCAnLXRuJywgJzgnLCAnLW1hJywgJzIwMCcsICctaW1hZScsICc8aW5maWxlLm1hZT4nLCAnLW9tYWUnLCAnPG91dGZpbGUubWFlPic=

>  <r_epik_Ionization_Penalty>  (62) 
0.0000

>  <r_epik_Ionization_Penalty_Charging>  (62) 
0.0000

>  <r_epik_Ionization_Penalty_Neutral>  (62) 
0.0000

>  <r_epik_State_Penalty>  (62) 
0.0000

>  <r_epik_Charging_Adjusted_Penalty>  (62) 
3.56176176901582e-05

>  <i_epik_Tot_Q>  (62) 
-1

>  <i_epik_Tot_abs_Q>  (62) 
1

>  <i_f3d_flags>  (62) 
0

>  <s_lp_Force_Field>  (62) 
OPLS_2005

>  <r_lp_Energy>  (62) 
6.637638

>  <b_lp_Chiralities_Consistent>  (62) 
1

>  <s_lp_Variant>  (62) 
ZINC000040955169-2

>  <s_m_job_name>  (62) 
zinc0995

>  <s_i_glide_gridfile>  (62) 
zincglide

>  <i_i_glide_lignum>  (62) 
18904

>  <i_i_glide_rotatable_bonds>  (62) 
4

>  <r_i_docking_score>  (62) 
-5.98794480660002

>  <r_i_glide_ligand_efficiency>  (62) 
-0.427710343328573

>  <r_i_glide_ligand_efficiency_sa>  (62) 
-1.03084277437427

>  <r_i_glide_ligand_efficiency_ln>  (62) 
-1.64546591719485

>  <r_i_glide_gscore>  (62) 
-5.98794480660002

>  <r_i_glide_lipo>  (62) 
-0.269625795370522

>  <r_i_glide_hbond>  (62) 
-0.574261875479555

>  <r_i_glide_metal>  (62) 
0

>  <r_i_glide_rewards>  (62) 
-2.84635023978546

>  <r_i_glide_evdw>  (62) 
-20.0368251800537

>  <r_i_glide_ecoul>  (62) 
-10.3422870635986

>  <r_i_glide_erotb>  (62) 
0.260812603442239

>  <r_i_glide_esite>  (62) 
-0.00533518086424341

>  <r_i_glide_emodel>  (62) 
-46.5555719102648

>  <r_i_glide_energy>  (62) 
-30.3791122436523

>  <r_i_glide_einternal>  (62) 
2.21915102005005

>  <i_i_glide_confnum>  (62) 
2

>  <i_i_glide_posenum>  (62) 
192

>  <r_i_glide_eff_state_penalty>  (62) 
0

>  <r_lp_tautomer_probability>  (62) 
1

>  <s_m_subgroup_title>  (62) 
0995dock_pv

>  <s_m_subgroupid>  (62) 
0995dock_pv

>  <b_m_subgroup_collapsed>  (62) 
0

>  <class>  (62) 
5

>  <isCentroid>  (62) 
flase

$$$$
ZINC000040955173
     RDKit          3D

 14 14  0  0  1  0  0  0  0  0999 V2000
    4.4122   12.7780  -20.8247 C   0  0  0  0  0  0  0  0  0  0  0  0
    3.8761   12.4242  -22.2250 C   0  0  0  0  0  0  0  0  0  0  0  0
    4.3787   11.0962  -22.8422 C   0  0  1  0  0  0  0  0  0  0  0  0
    5.8956   11.0979  -23.0607 C   0  0  0  0  0  0  0  0  0  0  0  0
    6.3240   11.3136  -24.2170 O   0  0  0  0  0  0  0  0  0  0  0  0
    6.6328   10.9273  -22.0746 O   0  0  0  0  0  0  0  0  0  0  0  0
    3.7391    9.6757  -21.8171 S   0  0  0  0  0  0  0  0  0  0  0  0
    4.7354    8.5125  -21.8257 O   0  0  0  0  0  0  0  0  0  0  0  0
    2.3754    9.2017  -22.9371 C   0  0  0  0  0  0  0  0  0  0  0  0
    2.5730    8.2057  -23.9138 C   0  0  0  0  0  0  0  0  0  0  0  0
    1.5223    7.8627  -24.7861 C   0  0  0  0  0  0  0  0  0  0  0  0
    0.2776    8.5135  -24.6769 C   0  0  0  0  0  0  0  0  0  0  0  0
    0.0814    9.5036  -23.6933 C   0  0  0  0  0  0  0  0  0  0  0  0
    1.1310    9.8495  -22.8194 C   0  0  0  0  0  0  0  0  0  0  0  0
  1  2  1  0
  3  2  1  1
  3  4  1  0
  3  7  1  0
  4  5  2  0
  4  6  1  0
  7  8  2  0
  7  9  1  0
  9 10  2  0
  9 14  1  0
 10 11  1  0
 11 12  2  0
 12 13  1  0
 13 14  2  0
M  CHG  1   6  -1
M  END
>  <s_m_entry_id>  (63) 
81

>  <s_m_entry_name>  (63) 
ZINC000040955173.1

>  <s_m_Source_Path>  (63) 
/home/bhw/schrodinger/schrodinger/0995dock

>  <s_m_Source_File>  (63) 
0995dock_pv.maegz

>  <i_m_Source_File_Index>  (63) 
81

>  <zinc_id>  (63) 
ZINC000040955173

>  <smiles>  (63) 
CC[C@@H](C(=O)O)[S@](=O)c1ccccc1

>  <chiral flag>  (63) 
0

>  <version>  (63) 
0

>  <i_lp_mmshare_version>  (63) 
44012

>  <s_epik_input>  (63) 
W0NIM11bQ0gyXVtDQEBIXShDKD1PKVtPSF0pW1NAXSg9TyljMVtjSF1bY0hdW2NIXVtjSF1bY0hdMQ==

>  <s_epik_cmdline>  (63) 
J2VwaWtfcHl0aG9uJywgJy1waCcsICc3LjAnLCAnLXRuJywgJzgnLCAnLW1hJywgJzIwMCcsICctaW1hZScsICc8aW5maWxlLm1hZT4nLCAnLW9tYWUnLCAnPG91dGZpbGUubWFlPic=

>  <r_epik_Ionization_Penalty>  (63) 
0.0000

>  <r_epik_Ionization_Penalty_Charging>  (63) 
0.0000

>  <r_epik_Ionization_Penalty_Neutral>  (63) 
0.0000

>  <r_epik_State_Penalty>  (63) 
0.0000

>  <r_epik_Charging_Adjusted_Penalty>  (63) 
3.56176176901582e-05

>  <i_epik_Tot_Q>  (63) 
-1

>  <i_epik_Tot_abs_Q>  (63) 
1

>  <i_f3d_flags>  (63) 
0

>  <s_lp_Force_Field>  (63) 
OPLS_2005

>  <r_lp_Energy>  (63) 
6.637638

>  <b_lp_Chiralities_Consistent>  (63) 
1

>  <s_lp_Variant>  (63) 
ZINC000040955173-1

>  <s_m_job_name>  (63) 
zinc0995

>  <s_i_glide_gridfile>  (63) 
zincglide

>  <i_i_glide_lignum>  (63) 
18907

>  <i_i_glide_rotatable_bonds>  (63) 
4

>  <r_i_docking_score>  (63) 
-5.98794480660002

>  <r_i_glide_ligand_efficiency>  (63) 
-0.427710343328573

>  <r_i_glide_ligand_efficiency_sa>  (63) 
-1.03084277437427

>  <r_i_glide_ligand_efficiency_ln>  (63) 
-1.64546591719485

>  <r_i_glide_gscore>  (63) 
-5.98794480660002

>  <r_i_glide_lipo>  (63) 
-0.269625795370522

>  <r_i_glide_hbond>  (63) 
-0.574261875479555

>  <r_i_glide_metal>  (63) 
0

>  <r_i_glide_rewards>  (63) 
-2.84635023978546

>  <r_i_glide_evdw>  (63) 
-20.0368251800537

>  <r_i_glide_ecoul>  (63) 
-10.3422870635986

>  <r_i_glide_erotb>  (63) 
0.260812603442239

>  <r_i_glide_esite>  (63) 
-0.00533518086424341

>  <r_i_glide_emodel>  (63) 
-46.5555719102648

>  <r_i_glide_energy>  (63) 
-30.3791122436523

>  <r_i_glide_einternal>  (63) 
2.21915102005005

>  <i_i_glide_confnum>  (63) 
2

>  <i_i_glide_posenum>  (63) 
192

>  <r_i_glide_eff_state_penalty>  (63) 
0

>  <r_lp_tautomer_probability>  (63) 
1

>  <s_m_subgroup_title>  (63) 
0995dock_pv

>  <s_m_subgroupid>  (63) 
0995dock_pv

>  <b_m_subgroup_collapsed>  (63) 
0

>  <class>  (63) 
5

>  <isCentroid>  (63) 
flase

$$$$
ZINC000041044404
     RDKit          3D

 13 13  0  0  1  0  0  0  0  0999 V2000
    5.9227   12.5809  -22.6173 O   0  0  0  0  0  0  0  0  0  0  0  0
    5.9227   11.3876  -22.9850 C   0  0  0  0  0  0  0  0  0  0  0  0
    6.7234   10.9137  -23.8170 O   0  0  0  0  0  0  0  0  0  0  0  0
    4.8816   10.4487  -22.3861 C   0  0  0  0  0  0  0  0  0  0  0  0
    4.3014    9.6638  -23.4170 O   0  0  0  0  0  0  0  0  0  0  0  0
    3.3657    8.7234  -22.9261 C   0  0  0  0  0  0  0  0  0  0  0  0
    2.6215    8.1127  -24.1190 C   0  0  0  0  0  0  0  0  0  0  0  0
    1.7448    6.9713  -23.7279 C   0  0  0  0  0  0  0  0  0  0  0  0
    0.4592    7.0241  -23.2467 C   0  0  0  0  0  0  0  0  0  0  0  0
   -0.0820    5.7373  -22.9475 C   0  0  0  0  0  0  0  0  0  0  0  0
    0.8079    4.7324  -23.2075 C   0  0  0  0  0  0  0  0  0  0  0  0
    0.6026    3.0386  -23.0166 Cl  0  0  0  0  0  0  0  0  0  0  0  0
    2.3239    5.3261  -23.8149 S   0  0  0  0  0  0  0  0  0  0  0  0
  1  2  2  0
  2  3  1  0
  2  4  1  0
  4  5  1  0
  5  6  1  0
  6  7  1  0
  7  8  1  0
  8  9  2  0
  8 13  1  0
  9 10  1  0
 10 11  2  0
 11 12  1  0
 11 13  1  0
M  CHG  1   3  -1
M  END
>  <s_m_entry_id>  (64) 
3

>  <s_m_entry_name>  (64) 
ZINC000041044404.1

>  <s_m_Source_Path>  (64) 
/home/bhw/schrodinger/schrodinger/0995dock

>  <s_m_Source_File>  (64) 
0995dock_pv.maegz

>  <i_m_Source_File_Index>  (64) 
3

>  <zinc_id>  (64) 
ZINC000041044404

>  <smiles>  (64) 
O=C(O)COCCc1ccc(Cl)s1

>  <chiral flag>  (64) 
0

>  <version>  (64) 
0

>  <i_lp_mmshare_version>  (64) 
44012

>  <s_epik_input>  (64) 
Tz1DKFtPSF0pW0NIMl1PW0NIMl1bQ0gyXWMxW2NIXVtjSF1jKENsKXMx

>  <s_epik_cmdline>  (64) 
J2VwaWtfcHl0aG9uJywgJy1waCcsICc3LjAnLCAnLXRuJywgJzgnLCAnLW1hJywgJzIwMCcsICctaW1hZScsICc8aW5maWxlLm1hZT4nLCAnLW9tYWUnLCAnPG91dGZpbGUubWFlPic=

>  <r_epik_Ionization_Penalty>  (64) 
0.0003

>  <r_epik_Ionization_Penalty_Charging>  (64) 
0.0003

>  <r_epik_Ionization_Penalty_Neutral>  (64) 
0.0000

>  <r_epik_State_Penalty>  (64) 
0.0000

>  <r_epik_Charging_Adjusted_Penalty>  (64) 
0.000266281408910384

>  <i_epik_Tot_Q>  (64) 
-1

>  <i_epik_Tot_abs_Q>  (64) 
1

>  <i_f3d_flags>  (64) 
0

>  <s_lp_Force_Field>  (64) 
OPLS_2005

>  <r_lp_Energy>  (64) 
0.113243

>  <b_lp_Chiralities_Consistent>  (64) 
1

>  <s_lp_Variant>  (64) 
ZINC000041044404-1

>  <s_m_job_name>  (64) 
zinc0995

>  <s_i_glide_gridfile>  (64) 
zincglide

>  <i_i_glide_lignum>  (64) 
18921

>  <i_i_glide_rotatable_bonds>  (64) 
5

>  <r_i_docking_score>  (64) 
-6.79308332700484

>  <r_i_glide_ligand_efficiency>  (64) 
-0.522544871308065

>  <r_i_glide_ligand_efficiency_sa>  (64) 
-1.22867788074673

>  <r_i_glide_ligand_efficiency_ln>  (64) 
-1.90552028818775

>  <r_i_glide_gscore>  (64) 
-6.79308332700484

>  <r_i_glide_lipo>  (64) 
-1.346999838112

>  <r_i_glide_hbond>  (64) 
-0.500015728497971

>  <r_i_glide_metal>  (64) 
0

>  <r_i_glide_rewards>  (64) 
-3.40272210734621

>  <r_i_glide_evdw>  (64) 
-21.3123817443848

>  <r_i_glide_ecoul>  (64) 
-8.06950855255127

>  <r_i_glide_erotb>  (64) 
0.732699717053263

>  <r_i_glide_esite>  (64) 
0

>  <r_i_glide_emodel>  (64) 
-47.2711313053683

>  <r_i_glide_energy>  (64) 
-29.381890296936

>  <r_i_glide_einternal>  (64) 
2.10228848457336

>  <i_i_glide_confnum>  (64) 
2

>  <i_i_glide_posenum>  (64) 
367

>  <r_i_glide_eff_state_penalty>  (64) 
0

>  <r_lp_tautomer_probability>  (64) 
1

>  <s_m_subgroup_title>  (64) 
0995dock_pv

>  <s_m_subgroupid>  (64) 
0995dock_pv

>  <b_m_subgroup_collapsed>  (64) 
0

>  <class>  (64) 
4

>  <isCentroid>  (64) 
flase

$$$$
ZINC000045939148
     RDKit          3D

 32 35  0  0  1  0  0  0  0  0999 V2000
    0.6549    2.8658  -22.9355 C   0  0  0  0  0  0  0  0  0  0  0  0
   -0.1853    4.0956  -22.5706 C   0  0  0  0  0  0  0  0  0  0  0  0
    0.6395    5.3645  -22.4461 C   0  0  0  0  0  0  0  0  0  0  0  0
    1.4475    5.7963  -23.5154 C   0  0  0  0  0  0  0  0  0  0  0  0
    2.1917    6.9840  -23.4062 C   0  0  0  0  0  0  0  0  0  0  0  0
    2.1440    7.7622  -22.2253 C   0  0  0  0  0  0  0  0  0  0  0  0
    2.9585    8.9806  -22.1289 C   0  0  0  0  0  0  0  0  0  0  0  0
    3.9961    9.3758  -23.0345 C   0  0  0  0  0  0  0  0  0  0  0  0
    4.4931   10.5075  -22.4702 C   0  0  0  0  0  0  0  0  0  0  0  0
    5.6454   11.3132  -22.9185 C   0  0  0  0  0  0  0  0  0  0  0  0
    6.3250   10.9165  -23.8586 O   0  0  0  0  0  0  0  0  0  0  0  0
    5.8543   12.4556  -22.1937 N   0  0  0  0  0  0  0  0  0  0  0  0
    5.0719   12.7303  -20.9937 N   0  0  0  0  0  0  0  0  0  0  0  0
    4.1118   11.9586  -20.6259 C   0  0  0  0  0  0  0  0  0  0  0  0
    3.1106   12.1591  -19.1402 S   0  0  0  0  0  0  0  0  0  0  0  0
    4.0515   13.3421  -18.1440 C   0  0  0  0  0  0  0  0  0  0  0  0
    3.3007   13.6756  -16.8580 C   0  0  0  0  0  0  0  0  0  0  0  0
    2.4674   14.5809  -16.8544 O   0  0  0  0  0  0  0  0  0  0  0  0
    3.5627   12.9125  -15.7858 N   0  0  0  0  0  0  0  0  0  0  0  0
    2.8558   12.9843  -14.5143 C   0  0  0  0  0  0  0  0  0  0  0  0
    3.8050   13.0928  -13.3378 C   0  0  0  0  0  0  0  0  0  0  0  0
    3.9249   12.0269  -12.4228 C   0  0  0  0  0  0  0  0  0  0  0  0
    4.8108   12.1346  -11.3361 C   0  0  0  0  0  0  0  0  0  0  0  0
    5.5827   13.2991  -11.1665 C   0  0  0  0  0  0  0  0  0  0  0  0
    5.4672   14.3766  -12.0676 C   0  0  0  0  0  0  0  0  0  0  0  0
    6.2380   15.4914  -11.8169 O   0  0  0  0  0  0  0  0  0  0  0  0
    6.0988   16.6117  -12.6827 C   0  0  0  0  0  0  0  0  0  0  0  0
    4.5730   14.2602  -13.1620 C   0  0  0  0  0  0  0  0  0  0  0  0
    3.7474   10.7819  -21.3699 N   0  0  0  0  0  0  0  0  0  0  0  0
    2.8060    9.8436  -21.1144 N   0  0  0  0  0  0  0  0  0  0  0  0
    1.3370    7.3219  -21.1534 C   0  0  0  0  0  0  0  0  0  0  0  0
    0.5889    6.1318  -21.2635 C   0  0  0  0  0  0  0  0  0  0  0  0
  1  2  1  0
  2  3  1  0
  3  4  2  0
  3 32  1  0
  4  5  1  0
  5  6  2  0
  6  7  1  0
  6 31  1  0
  7  8  1  0
  7 30  2  0
  8  9  2  0
  9 10  1  0
  9 29  1  0
 10 11  2  0
 10 12  1  0
 12 13  1  0
 13 14  2  0
 14 15  1  0
 14 29  1  0
 15 16  1  0
 16 17  1  0
 17 18  2  0
 17 19  1  0
 19 20  1  0
 20 21  1  0
 21 22  2  0
 21 28  1  0
 22 23  1  0
 23 24  2  0
 24 25  1  0
 25 26  1  0
 25 28  2  0
 26 27  1  0
 29 30  1  0
 31 32  2  0
M  CHG  1  12  -1
M  END
>  <s_m_entry_id>  (65) 
54

>  <s_m_entry_name>  (65) 
ZINC000045939148.1

>  <s_m_Source_Path>  (65) 
/home/bhw/schrodinger/schrodinger/0995dock

>  <s_m_Source_File>  (65) 
0995dock_pv.maegz

>  <i_m_Source_File_Index>  (65) 
54

>  <zinc_id>  (65) 
ZINC000045939148

>  <smiles>  (65) 
CCc1ccc(-c2cc3c(=O)[nH]nc(SCC(=O)NCc4cccc(OC)c4)n3n2)cc1

>  <chiral flag>  (65) 
0

>  <version>  (65) 
0

>  <i_lp_mmshare_version>  (65) 
44012

>  <s_epik_input>  (65) 
W0NIM11bQ0gyXWMxW2NIXVtjSF1jKFtjSF1bY0hdMSktYyhbY0hdMilubihjMjMpYyhuW25IXWMzPU8pU1tDSDJdQyg9TylbTkhdW0NIMl1jNFtjSF1bY0hdW2NIXWMoW2NIXTQpT1tDSDNd

>  <s_epik_cmdline>  (65) 
J2VwaWtfcHl0aG9uJywgJy1waCcsICc3LjAnLCAnLXRuJywgJzgnLCAnLW1hJywgJzIwMCcsICctaW1hZScsICc8aW5maWxlLm1hZT4nLCAnLW9tYWUnLCAnPG91dGZpbGUubWFlPic=

>  <r_epik_Ionization_Penalty>  (65) 
0.0003

>  <r_epik_Ionization_Penalty_Charging>  (65) 
0.0003

>  <r_epik_Ionization_Penalty_Neutral>  (65) 
0.0000

>  <r_epik_State_Penalty>  (65) 
0.0002

>  <r_epik_Charging_Adjusted_Penalty>  (65) 
0.000519082699255402

>  <i_epik_Tot_Q>  (65) 
-1

>  <i_epik_Tot_abs_Q>  (65) 
1

>  <i_f3d_flags>  (65) 
0

>  <s_lp_Force_Field>  (65) 
OPLS_2005

>  <r_lp_Energy>  (65) 
36.493079

>  <b_lp_Chiralities_Consistent>  (65) 
1

>  <s_lp_Variant>  (65) 
ZINC000045939148-1

>  <s_m_job_name>  (65) 
zinc0995

>  <s_i_glide_gridfile>  (65) 
zincglide

>  <i_i_glide_lignum>  (65) 
19493

>  <i_i_glide_rotatable_bonds>  (65) 
9

>  <r_i_docking_score>  (65) 
-6.12899234885493

>  <r_i_glide_ligand_efficiency>  (65) 
-0.191531010901717

>  <r_i_glide_ligand_efficiency_sa>  (65) 
-0.608073055677362

>  <r_i_glide_ligand_efficiency_ln>  (65) 
-1.37244845693012

>  <r_i_glide_gscore>  (65) 
-6.12919234885493

>  <r_i_glide_lipo>  (65) 
-1.37831220033463

>  <r_i_glide_hbond>  (65) 
-0.647612776509295

>  <r_i_glide_metal>  (65) 
0

>  <r_i_glide_rewards>  (65) 
-1.14601036363636

>  <r_i_glide_evdw>  (65) 
-42.0729293823242

>  <r_i_glide_ecoul>  (65) 
-7.33741044998169

>  <r_i_glide_erotb>  (65) 
0.487967119218983

>  <r_i_glide_esite>  (65) 
-0.240966090980163

>  <r_i_glide_emodel>  (65) 
-68.2244544137627

>  <r_i_glide_energy>  (65) 
-49.4103398323059

>  <r_i_glide_einternal>  (65) 
6.43565654754639

>  <i_i_glide_confnum>  (65) 
118

>  <i_i_glide_posenum>  (65) 
333

>  <r_i_glide_eff_state_penalty>  (65) 
0.0002

>  <r_lp_tautomer_probability>  (65) 
1

>  <s_m_subgroup_title>  (65) 
0995dock_pv

>  <s_m_subgroupid>  (65) 
0995dock_pv

>  <b_m_subgroup_collapsed>  (65) 
0

>  <class>  (65) 
1

>  <isCentroid>  (65) 
flase

$$$$
ZINC000045939151
     RDKit          3D

 32 35  0  0  1  0  0  0  0  0999 V2000
    0.7066    2.7852  -22.9108 C   0  0  0  0  0  0  0  0  0  0  0  0
   -0.1115    4.0140  -22.4987 C   0  0  0  0  0  0  0  0  0  0  0  0
    0.7121    5.2880  -22.3893 C   0  0  0  0  0  0  0  0  0  0  0  0
    0.6438    6.0758  -21.2224 C   0  0  0  0  0  0  0  0  0  0  0  0
    1.3733    7.2760  -21.1278 C   0  0  0  0  0  0  0  0  0  0  0  0
    2.1876    7.7096  -22.2002 C   0  0  0  0  0  0  0  0  0  0  0  0
    2.9793    8.9439  -22.1086 C   0  0  0  0  0  0  0  0  0  0  0  0
    3.9983    9.3605  -23.0238 C   0  0  0  0  0  0  0  0  0  0  0  0
    4.4894   10.4914  -22.4585 C   0  0  0  0  0  0  0  0  0  0  0  0
    5.6333   11.3133  -22.9114 C   0  0  0  0  0  0  0  0  0  0  0  0
    6.3295   10.9152  -23.8422 O   0  0  0  0  0  0  0  0  0  0  0  0
    5.8119   12.4722  -22.2027 N   0  0  0  0  0  0  0  0  0  0  0  0
    5.0311   12.7367  -20.9990 N   0  0  0  0  0  0  0  0  0  0  0  0
    4.0935   11.9475  -20.6172 C   0  0  0  0  0  0  0  0  0  0  0  0
    3.1228   12.1355  -19.1071 S   0  0  0  0  0  0  0  0  0  0  0  0
    4.1075   13.2949  -18.1175 C   0  0  0  0  0  0  0  0  0  0  0  0
    3.4563   13.5793  -16.7631 C   0  0  0  0  0  0  0  0  0  0  0  0
    2.5359   14.3906  -16.6930 O   0  0  0  0  0  0  0  0  0  0  0  0
    3.9231   12.9142  -15.6910 N   0  0  0  0  0  0  0  0  0  0  0  0
    3.4516   13.0980  -14.3204 C   0  0  0  0  0  0  0  0  0  0  0  0
    4.2715   14.1191  -13.5476 C   0  0  0  0  0  0  0  0  0  0  0  0
    5.0930   13.7136  -12.4766 C   0  0  0  0  0  0  0  0  0  0  0  0
    5.9133   14.6506  -11.8171 C   0  0  0  0  0  0  0  0  0  0  0  0
    5.9228   16.0059  -12.2146 C   0  0  0  0  0  0  0  0  0  0  0  0
    6.7800   16.8481  -11.5394 O   0  0  0  0  0  0  0  0  0  0  0  0
    6.8096   18.2131  -11.9287 C   0  0  0  0  0  0  0  0  0  0  0  0
    5.0628   16.4170  -13.2618 C   0  0  0  0  0  0  0  0  0  0  0  0
    4.2454   15.4787  -13.9172 C   0  0  0  0  0  0  0  0  0  0  0  0
    3.7439   10.7604  -21.3545 N   0  0  0  0  0  0  0  0  0  0  0  0
    2.8185    9.8084  -21.0932 N   0  0  0  0  0  0  0  0  0  0  0  0
    2.2563    6.9097  -23.3659 C   0  0  0  0  0  0  0  0  0  0  0  0
    1.5238    5.7115  -23.4623 C   0  0  0  0  0  0  0  0  0  0  0  0
  1  2  1  0
  2  3  1  0
  3  4  2  0
  3 32  1  0
  4  5  1  0
  5  6  2  0
  6  7  1  0
  6 31  1  0
  7  8  1  0
  7 30  2  0
  8  9  2  0
  9 10  1  0
  9 29  1  0
 10 11  2  0
 10 12  1  0
 12 13  1  0
 13 14  2  0
 14 15  1  0
 14 29  1  0
 15 16  1  0
 16 17  1  0
 17 18  2  0
 17 19  1  0
 19 20  1  0
 20 21  1  0
 21 22  2  0
 21 28  1  0
 22 23  1  0
 23 24  2  0
 24 25  1  0
 24 27  1  0
 25 26  1  0
 27 28  2  0
 29 30  1  0
 31 32  2  0
M  CHG  1  12  -1
M  END
>  <s_m_entry_id>  (66) 
115

>  <s_m_entry_name>  (66) 
ZINC000045939151.1

>  <s_m_Source_Path>  (66) 
/home/bhw/schrodinger/schrodinger/0995dock

>  <s_m_Source_File>  (66) 
0995dock_pv.maegz

>  <i_m_Source_File_Index>  (66) 
115

>  <zinc_id>  (66) 
ZINC000045939151

>  <smiles>  (66) 
CCc1ccc(-c2cc3c(=O)[nH]nc(SCC(=O)NCc4ccc(OC)cc4)n3n2)cc1

>  <chiral flag>  (66) 
0

>  <version>  (66) 
0

>  <i_lp_mmshare_version>  (66) 
44012

>  <s_epik_input>  (66) 
W0NIM11bQ0gyXWMxW2NIXVtjSF1jKFtjSF1bY0hdMSktYyhbY0hdMilubihjMjMpYyhuW25IXWMzPU8pU1tDSDJdQyg9TylbTkhdW0NIMl1jNFtjSF1bY0hdYyhPW0NIM10pW2NIXVtjSF00

>  <s_epik_cmdline>  (66) 
J2VwaWtfcHl0aG9uJywgJy1waCcsICc3LjAnLCAnLXRuJywgJzgnLCAnLW1hJywgJzIwMCcsICctaW1hZScsICc8aW5maWxlLm1hZT4nLCAnLW9tYWUnLCAnPG91dGZpbGUubWFlPic=

>  <r_epik_Ionization_Penalty>  (66) 
0.0003

>  <r_epik_Ionization_Penalty_Charging>  (66) 
0.0003

>  <r_epik_Ionization_Penalty_Neutral>  (66) 
0.0000

>  <r_epik_State_Penalty>  (66) 
0.0002

>  <r_epik_Charging_Adjusted_Penalty>  (66) 
0.000524210455590901

>  <i_epik_Tot_Q>  (66) 
-1

>  <i_epik_Tot_abs_Q>  (66) 
1

>  <i_f3d_flags>  (66) 
0

>  <s_lp_Force_Field>  (66) 
OPLS_2005

>  <r_lp_Energy>  (66) 
37.051495

>  <b_lp_Chiralities_Consistent>  (66) 
1

>  <s_lp_Variant>  (66) 
ZINC000045939151-1

>  <s_m_job_name>  (66) 
zinc0995

>  <s_i_glide_gridfile>  (66) 
zincglide

>  <i_i_glide_lignum>  (66) 
19494

>  <i_i_glide_rotatable_bonds>  (66) 
9

>  <r_i_docking_score>  (66) 
-5.88615411096477

>  <r_i_glide_ligand_efficiency>  (66) 
-0.183942315967649

>  <r_i_glide_ligand_efficiency_sa>  (66) 
-0.583980451062386

>  <r_i_glide_ligand_efficiency_ln>  (66) 
-1.31807035594616

>  <r_i_glide_gscore>  (66) 
-5.88635411096477

>  <r_i_glide_lipo>  (66) 
-1.36923069124274

>  <r_i_glide_hbond>  (66) 
-0.454696313201507

>  <r_i_glide_metal>  (66) 
0

>  <r_i_glide_rewards>  (66) 
-1.18767703030303

>  <r_i_glide_evdw>  (66) 
-41.2909393310547

>  <r_i_glide_ecoul>  (66) 
-6.94023609161377

>  <r_i_glide_erotb>  (66) 
0.487967119218983

>  <r_i_glide_esite>  (66) 
-0.257134815141684

>  <r_i_glide_emodel>  (66) 
-67.9832108574281

>  <r_i_glide_energy>  (66) 
-48.2311754226685

>  <r_i_glide_einternal>  (66) 
2.72526907920837

>  <i_i_glide_confnum>  (66) 
64

>  <i_i_glide_posenum>  (66) 
309

>  <r_i_glide_eff_state_penalty>  (66) 
0.0002

>  <r_lp_tautomer_probability>  (66) 
1

>  <s_m_subgroup_title>  (66) 
0995dock_pv

>  <s_m_subgroupid>  (66) 
0995dock_pv

>  <b_m_subgroup_collapsed>  (66) 
0

>  <class>  (66) 
1

>  <isCentroid>  (66) 
flase

$$$$
ZINC000054186780
     RDKit          3D

 16 16  0  0  1  0  0  0  0  0999 V2000
    6.2706   11.3135  -23.7050 O   0  0  0  0  0  0  0  0  0  0  0  0
    5.5300   10.6509  -22.9393 C   0  0  0  0  0  0  0  0  0  0  0  0
    5.9237    9.7140  -22.2167 O   0  0  0  0  0  0  0  0  0  0  0  0
    4.0405   11.0027  -22.8773 C   0  0  0  0  0  0  0  0  0  0  0  0
    3.1420    9.7956  -22.5194 C   0  0  0  0  0  0  0  0  0  0  0  0
    3.1220    8.5135  -23.8149 S   0  0  0  0  0  0  0  0  0  0  0  0
    2.2123    7.1172  -23.2219 C   0  0  0  0  0  0  0  0  0  0  0  0
    1.2589    7.2391  -22.1911 C   0  0  0  0  0  0  0  0  0  0  0  0
    0.5235    6.1091  -21.7770 C   0  0  0  0  0  0  0  0  0  0  0  0
    0.7299    4.8524  -22.3883 C   0  0  0  0  0  0  0  0  0  0  0  0
   -0.0935    3.6504  -21.9481 C   0  0  0  0  0  0  0  0  0  0  0  0
   -1.3541    3.8152  -22.3477 F   0  0  0  0  0  0  0  0  0  0  0  0
    0.3691    2.5103  -22.4657 F   0  0  0  0  0  0  0  0  0  0  0  0
   -0.0742    3.5500  -20.6188 F   0  0  0  0  0  0  0  0  0  0  0  0
    1.6920    4.7364  -23.4138 C   0  0  0  0  0  0  0  0  0  0  0  0
    2.4317    5.8623  -23.8206 C   0  0  0  0  0  0  0  0  0  0  0  0
  1  2  2  0
  2  3  1  0
  2  4  1  0
  4  5  1  0
  5  6  1  0
  6  7  1  0
  7  8  2  0
  7 16  1  0
  8  9  1  0
  9 10  2  0
 10 11  1  0
 10 15  1  0
 11 12  1  0
 11 13  1  0
 11 14  1  0
 15 16  2  0
M  CHG  1   3  -1
M  END
>  <s_m_entry_id>  (67) 
46

>  <s_m_entry_name>  (67) 
ZINC000054186780.1

>  <s_m_Source_Path>  (67) 
/home/bhw/schrodinger/schrodinger/0995dock

>  <s_m_Source_File>  (67) 
0995dock_pv.maegz

>  <i_m_Source_File_Index>  (67) 
46

>  <zinc_id>  (67) 
ZINC000054186780

>  <smiles>  (67) 
O=C(O)CCSc1ccc(C(F)(F)F)cc1

>  <chiral flag>  (67) 
0

>  <version>  (67) 
0

>  <i_lp_mmshare_version>  (67) 
44012

>  <s_epik_input>  (67) 
Tz1DKFtPSF0pW0NIMl1bQ0gyXVNjMVtjSF1bY0hdYyhDKEYpKEYpRilbY0hdW2NIXTE=

>  <s_epik_cmdline>  (67) 
J2VwaWtfcHl0aG9uJywgJy1waCcsICc3LjAnLCAnLXRuJywgJzgnLCAnLW1hJywgJzIwMCcsICctaW1hZScsICc8aW5maWxlLm1hZT4nLCAnLW9tYWUnLCAnPG91dGZpbGUubWFlPic=

>  <r_epik_Ionization_Penalty>  (67) 
0.0013

>  <r_epik_Ionization_Penalty_Charging>  (67) 
0.0013

>  <r_epik_Ionization_Penalty_Neutral>  (67) 
0.0000

>  <r_epik_State_Penalty>  (67) 
0.0009

>  <r_epik_Charging_Adjusted_Penalty>  (67) 
0.00224654808087876

>  <i_epik_Tot_Q>  (67) 
-1

>  <i_epik_Tot_abs_Q>  (67) 
1

>  <i_f3d_flags>  (67) 
0

>  <s_lp_Force_Field>  (67) 
OPLS_2005

>  <r_lp_Energy>  (67) 
7.151417

>  <b_lp_Chiralities_Consistent>  (67) 
1

>  <s_lp_Variant>  (67) 
ZINC000054186780-1

>  <s_m_job_name>  (67) 
zinc0995

>  <s_i_glide_gridfile>  (67) 
zincglide

>  <i_i_glide_lignum>  (67) 
20351

>  <i_i_glide_rotatable_bonds>  (67) 
5

>  <r_i_docking_score>  (67) 
-6.18090084416749

>  <r_i_glide_ligand_efficiency>  (67) 
-0.386306302760468

>  <r_i_glide_ligand_efficiency_sa>  (67) 
-0.97343088421031

>  <r_i_glide_ligand_efficiency_ln>  (67) 
-1.63837123504358

>  <r_i_glide_gscore>  (67) 
-6.18180084416749

>  <r_i_glide_lipo>  (67) 
-1.03227203035075

>  <r_i_glide_hbond>  (67) 
-0.36

>  <r_i_glide_metal>  (67) 
0

>  <r_i_glide_rewards>  (67) 
-2.88711982509084

>  <r_i_glide_evdw>  (67) 
-19.0278358459473

>  <r_i_glide_ecoul>  (67) 
-10.2808809280396

>  <r_i_glide_erotb>  (67) 
0.591114942777406

>  <r_i_glide_esite>  (67) 
0

>  <r_i_glide_emodel>  (67) 
-44.2000502026869

>  <r_i_glide_energy>  (67) 
-29.3087167739868

>  <r_i_glide_einternal>  (67) 
3.33160161972046

>  <i_i_glide_confnum>  (67) 
2

>  <i_i_glide_posenum>  (67) 
282

>  <r_i_glide_eff_state_penalty>  (67) 
0.0009

>  <s_m_subgroup_title>  (67) 
0995dock_pv

>  <s_m_subgroupid>  (67) 
0995dock_pv

>  <b_m_subgroup_collapsed>  (67) 
0

>  <class>  (67) 
4

>  <isCentroid>  (67) 
flase

$$$$
ZINC000057218523
     RDKit          3D

 19 19  0  0  1  0  0  0  0  0999 V2000
    7.0638   13.7134  -20.0256 C   0  0  0  0  0  0  0  0  0  0  0  0
    5.9270   13.4605  -21.0032 C   0  0  0  0  0  0  0  0  0  0  0  0
    5.5245   14.3696  -21.7280 O   0  0  0  0  0  0  0  0  0  0  0  0
    5.4710   12.1975  -21.0172 N   0  0  0  0  0  0  0  0  0  0  0  0
    4.5125   11.5145  -21.8978 C   0  0  1  0  0  0  0  0  0  0  0  0
    3.7865   12.4475  -22.8893 C   0  0  0  0  0  0  0  0  0  0  0  0
    5.4267   10.5136  -22.6570 C   0  0  0  0  0  0  0  0  0  0  0  0
    5.5235    9.3471  -22.2167 O   0  0  0  0  0  0  0  0  0  0  0  0
    6.1063   10.9504  -23.6183 O   0  0  0  0  0  0  0  0  0  0  0  0
    3.4255   10.7688  -21.0922 C   0  0  0  0  0  0  0  0  0  0  0  0
    3.1238   11.1385  -19.7586 C   0  0  0  0  0  0  0  0  0  0  0  0
    2.1325   10.4556  -19.0289 C   0  0  0  0  0  0  0  0  0  0  0  0
    1.4192    9.3987  -19.6219 C   0  0  0  0  0  0  0  0  0  0  0  0
    1.6821    9.0302  -20.9579 C   0  0  0  0  0  0  0  0  0  0  0  0
    0.9223    7.8855  -21.6118 C   0  0  0  0  0  0  0  0  0  0  0  0
    1.7044    7.2327  -22.4732 F   0  0  0  0  0  0  0  0  0  0  0  0
    0.4964    7.0119  -20.6985 F   0  0  0  0  0  0  0  0  0  0  0  0
   -0.1315    8.3674  -22.2685 F   0  0  0  0  0  0  0  0  0  0  0  0
    2.6589    9.7366  -21.6899 C   0  0  0  0  0  0  0  0  0  0  0  0
  1  2  1  0
  2  3  2  0
  2  4  1  0
  4  5  1  0
  5  6  1  6
  5  7  1  0
  5 10  1  0
  7  8  2  0
  7  9  1  0
 10 11  2  0
 10 19  1  0
 11 12  1  0
 12 13  2  0
 13 14  1  0
 14 15  1  0
 14 19  2  0
 15 16  1  0
 15 17  1  0
 15 18  1  0
M  CHG  1   9  -1
M  END
>  <s_m_entry_id>  (68) 
76

>  <s_m_entry_name>  (68) 
ZINC000057218523.1

>  <s_m_Source_Path>  (68) 
/home/bhw/schrodinger/schrodinger/0995dock

>  <s_m_Source_File>  (68) 
0995dock_pv.maegz

>  <i_m_Source_File_Index>  (68) 
76

>  <zinc_id>  (68) 
ZINC000057218523

>  <smiles>  (68) 
CC(=O)N[C@@](C)(C(=O)O)c1cccc(C(F)(F)F)c1

>  <chiral flag>  (68) 
0

>  <version>  (68) 
0

>  <i_lp_mmshare_version>  (68) 
44012

>  <s_epik_input>  (68) 
W0NIM11DKD1PKVtOSF1bQ0BAXShbQ0gzXSkoQyg9TylbT0hdKWMxW2NIXVtjSF1bY0hdYyhDKEYpKEYpRilbY0hdMQ==

>  <s_epik_cmdline>  (68) 
J2VwaWtfcHl0aG9uJywgJy1waCcsICc3LjAnLCAnLXRuJywgJzgnLCAnLW1hJywgJzIwMCcsICctaW1hZScsICc8aW5maWxlLm1hZT4nLCAnLW9tYWUnLCAnPG91dGZpbGUubWFlPic=

>  <r_epik_Ionization_Penalty>  (68) 
0.0001

>  <r_epik_Ionization_Penalty_Charging>  (68) 
0.0001

>  <r_epik_Ionization_Penalty_Neutral>  (68) 
0.0000

>  <r_epik_State_Penalty>  (68) 
0.0000

>  <r_epik_Charging_Adjusted_Penalty>  (68) 
5.85135539145124e-05

>  <i_epik_Tot_Q>  (68) 
-1

>  <i_epik_Tot_abs_Q>  (68) 
1

>  <i_f3d_flags>  (68) 
0

>  <s_lp_Force_Field>  (68) 
OPLS_2005

>  <r_lp_Energy>  (68) 
12.241124

>  <b_lp_Chiralities_Consistent>  (68) 
1

>  <s_lp_Variant>  (68) 
ZINC000057218523-1

>  <s_m_job_name>  (68) 
zinc0995

>  <s_i_glide_gridfile>  (68) 
zincglide

>  <i_i_glide_lignum>  (68) 
20498

>  <i_i_glide_rotatable_bonds>  (68) 
5

>  <r_i_docking_score>  (68) 
-6.01769335377079

>  <r_i_glide_ligand_efficiency>  (68) 
-0.316720702830042

>  <r_i_glide_ligand_efficiency_sa>  (68) 
-0.845138044786571

>  <r_i_glide_ligand_efficiency_ln>  (68) 
-1.52561451338321

>  <r_i_glide_gscore>  (68) 
-6.01769335377079

>  <r_i_glide_lipo>  (68) 
-0.00164773481532269

>  <r_i_glide_hbond>  (68) 
-0.545203844909716

>  <r_i_glide_metal>  (68) 
0

>  <r_i_glide_rewards>  (68) 
-3.04503566951236

>  <r_i_glide_evdw>  (68) 
-20.9144039154053

>  <r_i_glide_ecoul>  (68) 
-10.5494995117188

>  <r_i_glide_erotb>  (68) 
0.334256137729332

>  <r_i_glide_esite>  (68) 
-0.131917119734652

>  <r_i_glide_emodel>  (68) 
-47.2550201951926

>  <r_i_glide_energy>  (68) 
-31.463903427124

>  <r_i_glide_einternal>  (68) 
3.21629309654236

>  <i_i_glide_confnum>  (68) 
1

>  <i_i_glide_posenum>  (68) 
272

>  <r_i_glide_eff_state_penalty>  (68) 
0

>  <r_lp_tautomer_probability>  (68) 
1

>  <s_m_subgroup_title>  (68) 
0995dock_pv

>  <s_m_subgroupid>  (68) 
0995dock_pv

>  <b_m_subgroup_collapsed>  (68) 
0

>  <class>  (68) 
8

>  <isCentroid>  (68) 
flase

$$$$
ZINC000057888820
     RDKit          3D

 16 17  0  0  1  0  0  0  0  0999 V2000
    6.2311   12.0797  -21.2255 N   0  0  0  0  0  0  0  0  0  0  0  0
    5.7870   11.3080  -22.2159 C   0  0  0  0  0  0  0  0  0  0  0  0
    6.3232   11.3138  -23.3257 O   0  0  0  0  0  0  0  0  0  0  0  0
    4.7319   10.5568  -21.8424 N   0  0  0  0  0  0  0  0  0  0  0  0
    4.0307    9.7031  -22.6170 C   0  0  0  0  0  0  0  0  0  0  0  0
    4.3237    9.4470  -23.7820 O   0  0  0  0  0  0  0  0  0  0  0  0
    2.7980    9.0407  -21.9704 C   0  0  0  0  0  0  0  0  0  0  0  0
    2.5881    7.6278  -22.3345 N   0  0  0  0  0  0  0  0  0  0  0  0
    2.1393    7.3987  -23.7270 C   0  0  0  0  0  0  0  0  0  0  0  0
    2.1258    5.8816  -24.0418 C   0  0  0  0  0  0  0  0  0  0  0  0
    1.3777    5.1285  -22.9971 C   0  0  0  0  0  0  0  0  0  0  0  0
    0.7235    3.5281  -23.1954 S   0  0  0  0  0  0  0  0  0  0  0  0
    0.0579    3.5773  -21.5818 C   0  0  0  0  0  0  0  0  0  0  0  0
    0.3476    4.7588  -20.9467 C   0  0  0  0  0  0  0  0  0  0  0  0
    1.1154    5.6442  -21.7605 C   0  0  0  0  0  0  0  0  0  0  0  0
    1.5825    7.0321  -21.4388 C   0  0  0  0  0  0  0  0  0  0  0  0
  1  2  1  0
  2  3  2  0
  2  4  1  0
  4  5  1  0
  5  6  2  0
  5  7  1  0
  7  8  1  0
  8  9  1  0
  8 16  1  0
  9 10  1  0
 10 11  1  0
 11 12  1  0
 11 15  2  0
 12 13  1  0
 13 14  2  0
 14 15  1  0
 15 16  1  0
M  END
>  <s_m_entry_id>  (69) 
42

>  <s_m_entry_name>  (69) 
ZINC000057888820.1

>  <s_m_Source_Path>  (69) 
/home/bhw/schrodinger/schrodinger/0995dock

>  <s_m_Source_File>  (69) 
0995dock_pv.maegz

>  <i_m_Source_File_Index>  (69) 
42

>  <zinc_id>  (69) 
ZINC000057888820

>  <smiles>  (69) 
NC(=O)NC(=O)CN1CCc2sccc2C1

>  <chiral flag>  (69) 
0

>  <version>  (69) 
0

>  <i_lp_mmshare_version>  (69) 
44012

>  <s_epik_input>  (69) 
W05IMl1DKD1PKVtOSF1DKD1PKVtDSDJdTihbQ0gyXVtDSDJdMSlbQ0gyXWMoYzEyKVtjSF1bY0hdczI=

>  <s_epik_cmdline>  (69) 
J2VwaWtfcHl0aG9uJywgJy1waCcsICc3LjAnLCAnLXRuJywgJzgnLCAnLW1hJywgJzIwMCcsICctaW1hZScsICc8aW5maWxlLm1hZT4nLCAnLW9tYWUnLCAnPG91dGZpbGUubWFlPic=

>  <r_epik_Ionization_Penalty>  (69) 
0.1547

>  <r_epik_Ionization_Penalty_Charging>  (69) 
0.0000

>  <r_epik_Ionization_Penalty_Neutral>  (69) 
0.1547

>  <r_epik_State_Penalty>  (69) 
0.1439

>  <r_epik_Charging_Adjusted_Penalty>  (69) 
0.143942886672118

>  <i_epik_Tot_Q>  (69) 
0

>  <i_epik_Tot_abs_Q>  (69) 
0

>  <i_f3d_flags>  (69) 
0

>  <s_lp_Force_Field>  (69) 
OPLS_2005

>  <r_lp_Energy>  (69) 
12.384343

>  <b_lp_Chiralities_Consistent>  (69) 
1

>  <s_lp_Variant>  (69) 
ZINC000057888820-1

>  <s_m_job_name>  (69) 
zinc0995

>  <s_i_glide_gridfile>  (69) 
zincglide

>  <i_i_glide_lignum>  (69) 
21117

>  <i_i_glide_rotatable_bonds>  (69) 
4

>  <r_i_docking_score>  (69) 
-6.20811983594638

>  <r_i_glide_ligand_efficiency>  (69) 
-0.388007489746648

>  <r_i_glide_ligand_efficiency_sa>  (69) 
-0.97771760679374

>  <r_i_glide_ligand_efficiency_ln>  (69) 
-1.64558617252628

>  <r_i_glide_gscore>  (69) 
-6.35201983594638

>  <r_i_glide_lipo>  (69) 
-1.32421485588374

>  <r_i_glide_hbond>  (69) 
-0.638984813252026

>  <r_i_glide_metal>  (69) 
0

>  <r_i_glide_rewards>  (69) 
-1.77753327272727

>  <r_i_glide_evdw>  (69) 
-26.0020503997803

>  <r_i_glide_ecoul>  (69) 
-11.5242471694946

>  <r_i_glide_erotb>  (69) 
0.603510214027525

>  <r_i_glide_esite>  (69) 
-0.186057512697654

>  <r_i_glide_emodel>  (69) 
-52.7251932825288

>  <r_i_glide_energy>  (69) 
-37.5262975692749

>  <r_i_glide_einternal>  (69) 
0.290300697088242

>  <i_i_glide_confnum>  (69) 
2

>  <i_i_glide_posenum>  (69) 
280

>  <r_i_glide_eff_state_penalty>  (69) 
0.1439

>  <r_lp_tautomer_probability>  (69) 
0.99990000499975

>  <s_m_subgroup_title>  (69) 
0995dock_pv

>  <s_m_subgroupid>  (69) 
0995dock_pv

>  <b_m_subgroup_collapsed>  (69) 
0

>  <class>  (69) 
2

>  <isCentroid>  (69) 
true

$$$$
ZINC000062758329
     RDKit          3D

 18 18  0  0  1  0  0  0  0  0999 V2000
    5.9205   12.5646  -22.5339 O   0  0  0  0  0  0  0  0  0  0  0  0
    5.9236   11.3654  -22.8736 C   0  0  0  0  0  0  0  0  0  0  0  0
    6.6005   10.9134  -23.8174 O   0  0  0  0  0  0  0  0  0  0  0  0
    5.0988   10.3658  -22.0747 C   0  0  0  0  0  0  0  0  0  0  0  0
    3.5854   10.4787  -22.3696 C   0  0  1  0  0  0  0  0  0  0  0  0
    2.9598    9.1696  -22.2207 N   0  0  0  0  0  0  0  0  0  0  0  0
    2.3412    8.6013  -21.1253 C   0  0  0  0  0  0  0  0  0  0  0  0
    1.9200    7.3560  -21.4956 C   0  0  0  0  0  0  0  0  0  0  0  0
    2.3466    7.2306  -22.8493 C   0  0  0  0  0  0  0  0  0  0  0  0
    2.1601    6.0647  -23.7882 C   0  0  0  0  0  0  0  0  0  0  0  0
    1.1378    5.3083  -23.3887 F   0  0  0  0  0  0  0  0  0  0  0  0
    1.9133    6.5121  -25.0170 F   0  0  0  0  0  0  0  0  0  0  0  0
    3.2586    5.3132  -23.8172 F   0  0  0  0  0  0  0  0  0  0  0  0
    3.0070    8.3054  -23.2578 N   0  0  0  0  0  0  0  0  0  0  0  0
    2.8460   11.5818  -21.5697 C   0  0  0  0  0  0  0  0  0  0  0  0
    3.2364   12.7973  -21.9463 F   0  0  0  0  0  0  0  0  0  0  0  0
    1.5338   11.4994  -21.7925 F   0  0  0  0  0  0  0  0  0  0  0  0
    3.0602   11.4500  -20.2599 F   0  0  0  0  0  0  0  0  0  0  0  0
  1  2  2  0
  2  3  1  0
  2  4  1  0
  5  4  1  1
  5  6  1  0
  5 15  1  0
  6  7  1  0
  6 14  1  0
  7  8  2  0
  8  9  1  0
  9 10  1  0
  9 14  2  0
 10 11  1  0
 10 12  1  0
 10 13  1  0
 15 16  1  0
 15 17  1  0
 15 18  1  0
M  CHG  1   3  -1
M  END
>  <s_m_entry_id>  (70) 
38

>  <s_m_entry_name>  (70) 
ZINC000062758329.1

>  <s_m_Source_Path>  (70) 
/home/bhw/schrodinger/schrodinger/0995dock

>  <s_m_Source_File>  (70) 
0995dock_pv.maegz

>  <i_m_Source_File_Index>  (70) 
38

>  <zinc_id>  (70) 
ZINC000062758329

>  <smiles>  (70) 
O=C(O)C[C@@H](n1ccc(C(F)(F)F)n1)C(F)(F)F

>  <chiral flag>  (70) 
0

>  <version>  (70) 
0

>  <i_lp_mmshare_version>  (70) 
44012

>  <s_epik_input>  (70) 
Tz1DKFtPSF0pW0NIMl1bQ0BIXShDKEYpKEYpRiluMVtjSF1bY0hdYyhuMSlDKEYpKEYpRg==

>  <s_epik_cmdline>  (70) 
J2VwaWtfcHl0aG9uJywgJy1waCcsICc3LjAnLCAnLXRuJywgJzgnLCAnLW1hJywgJzIwMCcsICctaW1hZScsICc8aW5maWxlLm1hZT4nLCAnLW9tYWUnLCAnPG91dGZpbGUubWFlPic=

>  <r_epik_Ionization_Penalty>  (70) 
0.0003

>  <r_epik_Ionization_Penalty_Charging>  (70) 
0.0003

>  <r_epik_Ionization_Penalty_Neutral>  (70) 
0.0000

>  <r_epik_State_Penalty>  (70) 
0.0000

>  <r_epik_Charging_Adjusted_Penalty>  (70) 
0.000260221123104343

>  <i_epik_Tot_Q>  (70) 
-1

>  <i_epik_Tot_abs_Q>  (70) 
1

>  <i_f3d_flags>  (70) 
0

>  <s_lp_Force_Field>  (70) 
OPLS_2005

>  <r_lp_Energy>  (70) 
9.649707

>  <b_lp_Chiralities_Consistent>  (70) 
1

>  <s_lp_Variant>  (70) 
ZINC000062758329-1

>  <s_m_job_name>  (70) 
zinc0995

>  <s_i_glide_gridfile>  (70) 
zincglide

>  <i_i_glide_lignum>  (70) 
21466

>  <i_i_glide_rotatable_bonds>  (70) 
5

>  <r_i_docking_score>  (70) 
-6.24846053882152

>  <r_i_glide_ligand_efficiency>  (70) 
-0.347136696601195

>  <r_i_glide_ligand_efficiency_sa>  (70) 
-0.909755509355177

>  <r_i_glide_ligand_efficiency_ln>  (70) 
-1.60613456185497

>  <r_i_glide_gscore>  (70) 
-6.24846053882152

>  <r_i_glide_lipo>  (70) 
-0.490330380697747

>  <r_i_glide_hbond>  (70) 
-0.301031640755108

>  <r_i_glide_metal>  (70) 
0

>  <r_i_glide_rewards>  (70) 
-3.75040336377107

>  <r_i_glide_evdw>  (70) 
-20.9739093780518

>  <r_i_glide_ecoul>  (70) 
-6.19547557830811

>  <r_i_glide_erotb>  (70) 
0.332338053328764

>  <r_i_glide_esite>  (70) 
-0.0610164012775498

>  <r_i_glide_emodel>  (70) 
-41.7035067064756

>  <r_i_glide_energy>  (70) 
-27.1693849563599

>  <r_i_glide_einternal>  (70) 
3.82126593589783

>  <i_i_glide_confnum>  (70) 
5

>  <i_i_glide_posenum>  (70) 
282

>  <r_i_glide_eff_state_penalty>  (70) 
0

>  <r_lp_tautomer_probability>  (70) 
1

>  <s_m_subgroup_title>  (70) 
0995dock_pv

>  <s_m_subgroupid>  (70) 
0995dock_pv

>  <b_m_subgroup_collapsed>  (70) 
0

>  <class>  (70) 
10

>  <isCentroid>  (70) 
flase

$$$$
ZINC000071814603
     RDKit          3D

 16 16  0  0  1  0  0  0  0  0999 V2000
    6.1191   12.9215  -20.3059 N   0  0  0  0  0  0  0  0  0  0  0  0
    5.7761   12.4537  -21.5020 C   0  0  0  0  0  0  0  0  0  0  0  0
    5.9236   13.1063  -22.5339 O   0  0  0  0  0  0  0  0  0  0  0  0
    5.2565   11.2196  -21.4171 N   0  0  0  0  0  0  0  0  0  0  0  0
    4.9417   10.3946  -22.4330 C   0  0  0  0  0  0  0  0  0  0  0  0
    5.3564   10.5137  -23.5870 O   0  0  0  0  0  0  0  0  0  0  0  0
    4.0300    9.2164  -22.0782 C   0  0  0  0  0  0  0  0  0  0  0  0
    2.7123    9.2428  -22.8757 C   0  0  0  0  0  0  0  0  0  0  0  0
    2.7221    8.1135  -24.3009 S   0  0  0  0  0  0  0  0  0  0  0  0
    1.8294    6.6715  -23.8018 C   0  0  0  0  0  0  0  0  0  0  0  0
    2.4922    5.4290  -23.8161 C   0  0  0  0  0  0  0  0  0  0  0  0
    1.8167    4.2599  -23.4168 C   0  0  0  0  0  0  0  0  0  0  0  0
    0.4724    4.3260  -23.0097 C   0  0  0  0  0  0  0  0  0  0  0  0
   -0.2004    5.5623  -23.0145 C   0  0  0  0  0  0  0  0  0  0  0  0
    0.4675    6.7365  -23.4170 C   0  0  0  0  0  0  0  0  0  0  0  0
   -0.4286    8.2143  -23.4717 Cl  0  0  0  0  0  0  0  0  0  0  0  0
  1  2  1  0
  2  3  2  0
  2  4  1  0
  4  5  1  0
  5  6  2  0
  5  7  1  0
  7  8  1  0
  8  9  1  0
  9 10  1  0
 10 11  2  0
 10 15  1  0
 11 12  1  0
 12 13  2  0
 13 14  1  0
 14 15  2  0
 15 16  1  0
M  END
>  <s_m_entry_id>  (71) 
92

>  <s_m_entry_name>  (71) 
ZINC000071814603.1

>  <s_m_Source_Path>  (71) 
/home/bhw/schrodinger/schrodinger/0995dock

>  <s_m_Source_File>  (71) 
0995dock_pv.maegz

>  <i_m_Source_File_Index>  (71) 
92

>  <zinc_id>  (71) 
ZINC000071814603

>  <smiles>  (71) 
NC(=O)NC(=O)CCSc1ccccc1Cl

>  <chiral flag>  (71) 
0

>  <version>  (71) 
0

>  <i_lp_mmshare_version>  (71) 
44012

>  <s_epik_input>  (71) 
W05IMl1DKD1PKVtOSF1DKD1PKVtDSDJdW0NIMl1TYzFbY0hdW2NIXVtjSF1bY0hdYzFDbA==

>  <s_epik_cmdline>  (71) 
J2VwaWtfcHl0aG9uJywgJy1waCcsICc3LjAnLCAnLXRuJywgJzgnLCAnLW1hJywgJzIwMCcsICctaW1hZScsICc8aW5maWxlLm1hZT4nLCAnLW9tYWUnLCAnPG91dGZpbGUubWFlPic=

>  <r_epik_Ionization_Penalty>  (71) 
0.0000

>  <r_epik_Ionization_Penalty_Charging>  (71) 
0.0000

>  <r_epik_Ionization_Penalty_Neutral>  (71) 
0.0000

>  <r_epik_State_Penalty>  (71) 
0.0000

>  <r_epik_Charging_Adjusted_Penalty>  (71) 
0

>  <i_epik_Tot_Q>  (71) 
0

>  <i_epik_Tot_abs_Q>  (71) 
0

>  <i_f3d_flags>  (71) 
0

>  <s_lp_Force_Field>  (71) 
OPLS_2005

>  <r_lp_Energy>  (71) 
6.836564

>  <b_lp_Chiralities_Consistent>  (71) 
1

>  <s_lp_Variant>  (71) 
ZINC000071814603-1

>  <s_m_job_name>  (71) 
zinc0995

>  <s_i_glide_gridfile>  (71) 
zincglide

>  <i_i_glide_lignum>  (71) 
23386

>  <i_i_glide_rotatable_bonds>  (71) 
6

>  <r_i_docking_score>  (71) 
-5.94838353162897

>  <r_i_glide_ligand_efficiency>  (71) 
-0.37177397072681

>  <r_i_glide_ligand_efficiency_sa>  (71) 
-0.93681170217762

>  <r_i_glide_ligand_efficiency_ln>  (71) 
-1.5767378767165

>  <r_i_glide_gscore>  (71) 
-5.94838353162897

>  <r_i_glide_lipo>  (71) 
-1.35573994550278

>  <r_i_glide_hbond>  (71) 
-0.5978594914283

>  <r_i_glide_metal>  (71) 
0

>  <r_i_glide_rewards>  (71) 
-1.86657824946987

>  <r_i_glide_evdw>  (71) 
-27.0536804199219

>  <r_i_glide_ecoul>  (71) 
-10.9111070632935

>  <r_i_glide_erotb>  (71) 
1.05590620593565

>  <r_i_glide_esite>  (71) 
-0.19476197067355

>  <r_i_glide_emodel>  (71) 
-48.9338636847627

>  <r_i_glide_energy>  (71) 
-37.9647874832153

>  <r_i_glide_einternal>  (71) 
7.856041431427

>  <i_i_glide_confnum>  (71) 
14

>  <i_i_glide_posenum>  (71) 
350

>  <r_i_glide_eff_state_penalty>  (71) 
0

>  <r_lp_tautomer_probability>  (71) 
1

>  <s_m_subgroup_title>  (71) 
0995dock_pv

>  <s_m_subgroupid>  (71) 
0995dock_pv

>  <b_m_subgroup_collapsed>  (71) 
0

>  <class>  (71) 
2

>  <isCentroid>  (71) 
flase

$$$$
ZINC000072319858
     RDKit          3D

 21 22  0  0  1  0  0  0  0  0999 V2000
    6.4726   10.5285  -23.4160 O   0  0  0  0  0  0  0  0  0  0  0  0
    5.5232   11.2662  -23.0746 C   0  0  0  0  0  0  0  0  0  0  0  0
    5.6616   12.5094  -23.0170 O   0  0  0  0  0  0  0  0  0  0  0  0
    4.1719   10.6526  -22.8033 C   0  0  0  0  0  0  0  0  0  0  0  0
    3.0833   11.4741  -22.4624 C   0  0  0  0  0  0  0  0  0  0  0  0
    1.8164   10.8938  -22.3139 C   0  0  0  0  0  0  0  0  0  0  0  0
    1.6702    9.5003  -22.4949 C   0  0  0  0  0  0  0  0  0  0  0  0
    2.8248    8.7234  -22.8085 C   0  0  0  0  0  0  0  0  0  0  0  0
    4.0316    9.3144  -22.9596 N   0  0  0  0  0  0  0  0  0  0  0  0
    2.7241    7.3856  -22.9612 N   0  0  0  0  0  0  0  0  0  0  0  0
    1.5299    6.7672  -22.8473 C   0  0  0  0  0  0  0  0  0  0  0  0
    1.5152    5.2498  -22.9953 C   0  0  0  0  0  0  0  0  0  0  0  0
    2.6706    4.7845  -23.4724 F   0  0  0  0  0  0  0  0  0  0  0  0
    1.2859    4.6996  -21.8039 F   0  0  0  0  0  0  0  0  0  0  0  0
    0.5416    4.8698  -23.8165 F   0  0  0  0  0  0  0  0  0  0  0  0
    0.3472    7.4689  -22.5649 C   0  0  0  0  0  0  0  0  0  0  0  0
    0.4035    8.8661  -22.3798 C   0  0  0  0  0  0  0  0  0  0  0  0
   -0.8756    9.6427  -22.0582 C   0  0  0  0  0  0  0  0  0  0  0  0
   -0.7567   10.2511  -20.8770 F   0  0  0  0  0  0  0  0  0  0  0  0
   -1.1133   10.5533  -23.0024 F   0  0  0  0  0  0  0  0  0  0  0  0
   -1.9365    8.8317  -21.9950 F   0  0  0  0  0  0  0  0  0  0  0  0
  1  2  2  0
  2  3  1  0
  2  4  1  0
  4  5  2  0
  4  9  1  0
  5  6  1  0
  6  7  2  0
  7  8  1  0
  7 17  1  0
  8  9  2  0
  8 10  1  0
 10 11  2  0
 11 12  1  0
 11 16  1  0
 12 13  1  0
 12 14  1  0
 12 15  1  0
 16 17  2  0
 17 18  1  0
 18 19  1  0
 18 20  1  0
 18 21  1  0
M  CHG  1   3  -1
M  END
>  <s_m_entry_id>  (72) 
15

>  <s_m_entry_name>  (72) 
ZINC000072319858.1

>  <s_m_Source_Path>  (72) 
/home/bhw/schrodinger/schrodinger/0995dock

>  <s_m_Source_File>  (72) 
0995dock_pv.maegz

>  <i_m_Source_File_Index>  (72) 
15

>  <zinc_id>  (72) 
ZINC000072319858

>  <smiles>  (72) 
O=C(O)c1ccc2c(C(F)(F)F)cc(C(F)(F)F)nc2n1

>  <chiral flag>  (72) 
0

>  <version>  (72) 
0

>  <i_lp_mmshare_version>  (72) 
44012

>  <s_epik_input>  (72) 
Tz1DKFtPSF0pYyhbY0hdW2NIXTEpbmMoYzEyKW5jKEMoRikoRilGKVtjSF1jMkMoRikoRilG

>  <s_epik_cmdline>  (72) 
J2VwaWtfcHl0aG9uJywgJy1waCcsICc3LjAnLCAnLXRuJywgJzgnLCAnLW1hJywgJzIwMCcsICctaW1hZScsICc8aW5maWxlLm1hZT4nLCAnLW9tYWUnLCAnPG91dGZpbGUubWFlPic=

>  <r_epik_Ionization_Penalty>  (72) 
0.0000

>  <r_epik_Ionization_Penalty_Charging>  (72) 
0.0000

>  <r_epik_Ionization_Penalty_Neutral>  (72) 
0.0000

>  <r_epik_State_Penalty>  (72) 
0.0000

>  <r_epik_Charging_Adjusted_Penalty>  (72) 
1.97046935614005e-05

>  <i_epik_Tot_Q>  (72) 
-1

>  <i_epik_Tot_abs_Q>  (72) 
1

>  <i_f3d_flags>  (72) 
0

>  <s_lp_Force_Field>  (72) 
OPLS_2005

>  <r_lp_Energy>  (72) 
11.867906

>  <b_lp_Chiralities_Consistent>  (72) 
1

>  <s_lp_Variant>  (72) 
ZINC000072319858-1

>  <s_m_job_name>  (72) 
zinc0995

>  <s_i_glide_gridfile>  (72) 
zincglide

>  <i_i_glide_lignum>  (72) 
23575

>  <i_i_glide_rotatable_bonds>  (72) 
3

>  <r_i_docking_score>  (72) 
-6.41916655512447

>  <r_i_glide_ligand_efficiency>  (72) 
-0.30567459786307

>  <r_i_glide_ligand_efficiency_sa>  (72) 
-0.843333037294152

>  <r_i_glide_ligand_efficiency_ln>  (72) 
-1.58712595960716

>  <r_i_glide_gscore>  (72) 
-6.41916655512447

>  <r_i_glide_lipo>  (72) 
-0.31654816180384

>  <r_i_glide_hbond>  (72) 
-0.2165484963541

>  <r_i_glide_metal>  (72) 
0

>  <r_i_glide_rewards>  (72) 
-3.43060832175306

>  <r_i_glide_evdw>  (72) 
-18.9896411895752

>  <r_i_glide_ecoul>  (72) 
-9.82284736633301

>  <r_i_glide_erotb>  (72) 
0

>  <r_i_glide_esite>  (72) 
-0.0325524107847608

>  <r_i_glide_emodel>  (72) 
-46.1437974053632

>  <r_i_glide_energy>  (72) 
-28.8124885559082

>  <r_i_glide_einternal>  (72) 
1.7879421710968

>  <i_i_glide_confnum>  (72) 
1

>  <i_i_glide_posenum>  (72) 
355

>  <r_i_glide_eff_state_penalty>  (72) 
0

>  <r_lp_tautomer_probability>  (72) 
1

>  <s_m_subgroup_title>  (72) 
0995dock_pv

>  <s_m_subgroupid>  (72) 
0995dock_pv

>  <b_m_subgroup_collapsed>  (72) 
0

>  <class>  (72) 
7

>  <isCentroid>  (72) 
flase

$$$$
ZINC000072482111
     RDKit          3D

 16 16  0  0  1  0  0  0  0  0999 V2000
    1.9237   11.2470  -23.0170 N   0  0  0  0  0  0  0  0  0  0  0  0
    1.5652    9.8215  -23.1228 C   0  0  0  0  0  0  0  0  0  0  0  0
    2.4075    8.9000  -22.2047 C   0  0  2  0  0  0  0  0  0  0  0  0
    3.9237    8.9481  -22.5035 C   0  0  0  0  0  0  0  0  0  0  0  0
    4.3237    9.7139  -23.4108 O   0  0  0  0  0  0  0  0  0  0  0  0
    4.6744    8.2224  -21.8153 O   0  0  0  0  0  0  0  0  0  0  0  0
    1.9104    7.4569  -22.3082 C   0  0  0  0  0  0  0  0  0  0  0  0
    2.0813    6.7007  -23.4920 C   0  0  0  0  0  0  0  0  0  0  0  0
    1.5110    5.4176  -23.6076 C   0  0  0  0  0  0  0  0  0  0  0  0
    0.7498    4.8773  -22.5477 C   0  0  0  0  0  0  0  0  0  0  0  0
    0.0306    3.5428  -22.6861 C   0  0  0  0  0  0  0  0  0  0  0  0
    0.3237    2.7496  -21.6578 F   0  0  0  0  0  0  0  0  0  0  0  0
   -1.2840    3.7603  -22.6866 F   0  0  0  0  0  0  0  0  0  0  0  0
    0.3534    2.9136  -23.8155 F   0  0  0  0  0  0  0  0  0  0  0  0
    0.6135    5.6150  -21.3537 C   0  0  0  0  0  0  0  0  0  0  0  0
    1.1894    6.8941  -21.2335 C   0  0  0  0  0  0  0  0  0  0  0  0
  1  2  1  0
  3  2  1  6
  3  4  1  0
  3  7  1  0
  4  5  2  0
  4  6  1  0
  7  8  2  0
  7 16  1  0
  8  9  1  0
  9 10  2  0
 10 11  1  0
 10 15  1  0
 11 12  1  0
 11 13  1  0
 11 14  1  0
 15 16  2  0
M  CHG  2   1   1   6  -1
M  END
>  <s_m_entry_id>  (73) 
95

>  <s_m_entry_name>  (73) 
ZINC000072482111.1

>  <s_m_Source_Path>  (73) 
/home/bhw/schrodinger/schrodinger/0995dock

>  <s_m_Source_File>  (73) 
0995dock_pv.maegz

>  <i_m_Source_File_Index>  (73) 
95

>  <zinc_id>  (73) 
ZINC000072482111

>  <smiles>  (73) 
NC[C@H](C(=O)O)c1ccc(C(F)(F)F)cc1

>  <chiral flag>  (73) 
0

>  <version>  (73) 
0

>  <i_lp_mmshare_version>  (73) 
44012

>  <s_epik_input>  (73) 
W05IMl1bQ0gyXVtDQEhdKEMoPU8pW09IXSljMVtjSF1bY0hdYyhDKEYpKEYpRilbY0hdW2NIXTE=

>  <s_epik_cmdline>  (73) 
J2VwaWtfcHl0aG9uJywgJy1waCcsICc3LjAnLCAnLXRuJywgJzgnLCAnLW1hJywgJzIwMCcsICctaW1hZScsICc8aW5maWxlLm1hZT4nLCAnLW9tYWUnLCAnPG91dGZpbGUubWFlPic=

>  <r_epik_Ionization_Penalty>  (73) 
0.0039

>  <r_epik_Ionization_Penalty_Charging>  (73) 
0.0039

>  <r_epik_Ionization_Penalty_Neutral>  (73) 
0.0000

>  <r_epik_State_Penalty>  (73) 
0.0000

>  <r_epik_Charging_Adjusted_Penalty>  (73) 
0.00385068030447814

>  <i_epik_Tot_Q>  (73) 
0

>  <i_epik_Tot_abs_Q>  (73) 
2

>  <i_f3d_flags>  (73) 
0

>  <s_lp_Force_Field>  (73) 
OPLS_2005

>  <r_lp_Energy>  (73) 
7.678805

>  <b_lp_Chiralities_Consistent>  (73) 
1

>  <s_lp_Variant>  (73) 
ZINC000072482111-1

>  <s_m_job_name>  (73) 
zinc0995

>  <s_i_glide_gridfile>  (73) 
zincglide

>  <i_i_glide_lignum>  (73) 
23626

>  <i_i_glide_rotatable_bonds>  (73) 
4

>  <r_i_docking_score>  (73) 
-5.94238126965226

>  <r_i_glide_ligand_efficiency>  (73) 
-0.371398829353266

>  <r_i_glide_ligand_efficiency_sa>  (73) 
-0.935866405152064

>  <r_i_glide_ligand_efficiency_ln>  (73) 
-1.57514685728167

>  <r_i_glide_gscore>  (73) 
-5.94238126965226

>  <r_i_glide_lipo>  (73) 
-0.955272128397556

>  <r_i_glide_hbond>  (73) 
-0.434494562444235

>  <r_i_glide_metal>  (73) 
0

>  <r_i_glide_rewards>  (73) 
-2.25359890101534

>  <r_i_glide_evdw>  (73) 
-13.9340763092041

>  <r_i_glide_ecoul>  (73) 
-12.0864028930664

>  <r_i_glide_erotb>  (73) 
0.315335855961087

>  <r_i_glide_esite>  (73) 
-0.104687284336055

>  <r_i_glide_emodel>  (73) 
-43.3457220212799

>  <r_i_glide_energy>  (73) 
-26.0204792022705

>  <r_i_glide_einternal>  (73) 
0.685369193553925

>  <i_i_glide_confnum>  (73) 
2

>  <i_i_glide_posenum>  (73) 
132

>  <r_i_glide_eff_state_penalty>  (73) 
0

>  <r_lp_tautomer_probability>  (73) 
1

>  <s_m_subgroup_title>  (73) 
0995dock_pv

>  <s_m_subgroupid>  (73) 
0995dock_pv

>  <b_m_subgroup_collapsed>  (73) 
0

>  <class>  (73) 
7

>  <isCentroid>  (73) 
flase

$$$$
ZINC000076327995
     RDKit          3D

 18 18  0  0  1  0  0  0  0  0999 V2000
    3.2844   11.9043  -21.9080 C   0  0  0  0  0  0  0  0  0  0  0  0
    4.4720   10.9163  -21.9718 C   0  0  2  0  0  0  0  0  0  0  0  0
    5.5238   11.3356  -23.0218 C   0  0  0  0  0  0  0  0  0  0  0  0
    5.5236   12.5186  -23.4170 O   0  0  0  0  0  0  0  0  0  0  0  0
    6.3730   10.5135  -23.4170 O   0  0  0  0  0  0  0  0  0  0  0  0
    4.0400    9.4574  -22.2364 C   0  0  0  0  0  0  0  0  0  0  0  0
    4.7285    8.5246  -21.8170 O   0  0  0  0  0  0  0  0  0  0  0  0
    2.9040    9.2337  -22.9182 N   0  0  0  0  0  0  0  0  0  0  0  0
    2.2957    7.9598  -22.9716 C   0  0  0  0  0  0  0  0  0  0  0  0
    2.3237    7.2092  -24.1621 C   0  0  0  0  0  0  0  0  0  0  0  0
    1.7749    5.9130  -24.1736 C   0  0  0  0  0  0  0  0  0  0  0  0
    1.1757    5.3768  -23.0178 C   0  0  0  0  0  0  0  0  0  0  0  0
    1.1239    6.1350  -21.8290 C   0  0  0  0  0  0  0  0  0  0  0  0
    0.4986    5.5734  -20.5612 C   0  0  0  0  0  0  0  0  0  0  0  0
    0.2020    4.2792  -20.6858 F   0  0  0  0  0  0  0  0  0  0  0  0
    1.3481    5.7135  -19.5428 F   0  0  0  0  0  0  0  0  0  0  0  0
   -0.6194    6.2432  -20.2845 F   0  0  0  0  0  0  0  0  0  0  0  0
    1.6843    7.4292  -21.8146 C   0  0  0  0  0  0  0  0  0  0  0  0
  2  1  1  6
  2  3  1  0
  2  6  1  0
  3  4  2  0
  3  5  1  0
  6  7  2  0
  6  8  1  0
  8  9  1  0
  9 10  2  0
  9 18  1  0
 10 11  1  0
 11 12  2  0
 12 13  1  0
 13 14  1  0
 13 18  2  0
 14 15  1  0
 14 16  1  0
 14 17  1  0
M  CHG  1   5  -1
M  END
>  <s_m_entry_id>  (74) 
16

>  <s_m_entry_name>  (74) 
ZINC000076327995.1

>  <s_m_Source_Path>  (74) 
/home/bhw/schrodinger/schrodinger/0995dock

>  <s_m_Source_File>  (74) 
0995dock_pv.maegz

>  <i_m_Source_File_Index>  (74) 
16

>  <zinc_id>  (74) 
ZINC000076327995

>  <smiles>  (74) 
C[C@H](C(=O)O)C(=O)Nc1cccc(C(F)(F)F)c1

>  <chiral flag>  (74) 
0

>  <version>  (74) 
0

>  <i_lp_mmshare_version>  (74) 
44012

>  <s_epik_input>  (74) 
Tz1DKFtPSF0pW0NAQEhdKFtDSDNdKUMoPU8pW05IXWMxW2NIXVtjSF1bY0hdYyhDKEYpKEYpRilbY0hdMQ==

>  <s_epik_cmdline>  (74) 
J2VwaWtfcHl0aG9uJywgJy1waCcsICc3LjAnLCAnLXRuJywgJzgnLCAnLW1hJywgJzIwMCcsICctaW1hZScsICc8aW5maWxlLm1hZT4nLCAnLW9tYWUnLCAnPG91dGZpbGUubWFlPic=

>  <r_epik_Ionization_Penalty>  (74) 
0.0003

>  <r_epik_Ionization_Penalty_Charging>  (74) 
0.0003

>  <r_epik_Ionization_Penalty_Neutral>  (74) 
0.0000

>  <r_epik_State_Penalty>  (74) 
0.0000

>  <r_epik_Charging_Adjusted_Penalty>  (74) 
0.000270507167442226

>  <i_epik_Tot_Q>  (74) 
-1

>  <i_epik_Tot_abs_Q>  (74) 
1

>  <i_f3d_flags>  (74) 
0

>  <s_lp_Force_Field>  (74) 
OPLS_2005

>  <r_lp_Energy>  (74) 
15.820418

>  <b_lp_Chiralities_Consistent>  (74) 
1

>  <s_lp_Variant>  (74) 
ZINC000076327995-1

>  <s_m_job_name>  (74) 
zinc0995

>  <s_i_glide_gridfile>  (74) 
zincglide

>  <i_i_glide_lignum>  (74) 
23830

>  <i_i_glide_rotatable_bonds>  (74) 
5

>  <r_i_docking_score>  (74) 
-6.40826965968903

>  <r_i_glide_ligand_efficiency>  (74) 
-0.356014981093835

>  <r_i_glide_ligand_efficiency_sa>  (74) 
-0.933023197012183

>  <r_i_glide_ligand_efficiency_ln>  (74) 
-1.64721267233199

>  <r_i_glide_gscore>  (74) 
-6.40826965968903

>  <r_i_glide_lipo>  (74) 
-0.77749575079887

>  <r_i_glide_hbond>  (74) 
-0.362476484230928

>  <r_i_glide_metal>  (74) 
0

>  <r_i_glide_rewards>  (74) 
-2.80447103577468

>  <r_i_glide_evdw>  (74) 
-23.4831504821777

>  <r_i_glide_ecoul>  (74) 
-12.0620965957642

>  <r_i_glide_erotb>  (74) 
0.548991004348513

>  <r_i_glide_esite>  (74) 
-0.0293453797595543

>  <r_i_glide_emodel>  (74) 
-50.3647814829143

>  <r_i_glide_energy>  (74) 
-35.5452470779419

>  <r_i_glide_einternal>  (74) 
10.1365728378296

>  <i_i_glide_confnum>  (74) 
9

>  <i_i_glide_posenum>  (74) 
204

>  <r_i_glide_eff_state_penalty>  (74) 
0

>  <r_lp_tautomer_probability>  (74) 
1

>  <s_m_subgroup_title>  (74) 
0995dock_pv

>  <s_m_subgroupid>  (74) 
0995dock_pv

>  <b_m_subgroup_collapsed>  (74) 
0

>  <class>  (74) 
8

>  <isCentroid>  (74) 
true

$$$$
ZINC000076327999
     RDKit          3D

 18 18  0  0  1  0  0  0  0  0999 V2000
    3.7831   11.6683  -21.2834 C   0  0  0  0  0  0  0  0  0  0  0  0
    4.2449   10.9762  -22.5830 C   0  0  1  0  0  0  0  0  0  0  0  0
    5.7400   11.2302  -22.8779 C   0  0  0  0  0  0  0  0  0  0  0  0
    6.3237   12.1134  -22.2169 O   0  0  0  0  0  0  0  0  0  0  0  0
    6.2879   10.6113  -23.8170 O   0  0  0  0  0  0  0  0  0  0  0  0
    3.9972    9.4582  -22.4972 C   0  0  0  0  0  0  0  0  0  0  0  0
    4.7156    8.7194  -21.8171 O   0  0  0  0  0  0  0  0  0  0  0  0
    2.9553    8.9995  -23.2095 N   0  0  0  0  0  0  0  0  0  0  0  0
    2.3705    7.7231  -23.0581 C   0  0  0  0  0  0  0  0  0  0  0  0
    2.2314    6.8848  -24.1805 C   0  0  0  0  0  0  0  0  0  0  0  0
    1.6206    5.6251  -24.0359 C   0  0  0  0  0  0  0  0  0  0  0  0
    1.1229    5.2124  -22.7857 C   0  0  0  0  0  0  0  0  0  0  0  0
    1.2360    6.0594  -21.6615 C   0  0  0  0  0  0  0  0  0  0  0  0
    0.7135    5.6354  -20.2979 C   0  0  0  0  0  0  0  0  0  0  0  0
    1.6948    5.7148  -19.3994 F   0  0  0  0  0  0  0  0  0  0  0  0
   -0.2743    6.4492  -19.9291 F   0  0  0  0  0  0  0  0  0  0  0  0
    0.2532    4.3846  -20.3090 F   0  0  0  0  0  0  0  0  0  0  0  0
    1.8668    7.3132  -21.8036 C   0  0  0  0  0  0  0  0  0  0  0  0
  2  1  1  1
  2  3  1  0
  2  6  1  0
  3  4  2  0
  3  5  1  0
  6  7  2  0
  6  8  1  0
  8  9  1  0
  9 10  2  0
  9 18  1  0
 10 11  1  0
 11 12  2  0
 12 13  1  0
 13 14  1  0
 13 18  2  0
 14 15  1  0
 14 16  1  0
 14 17  1  0
M  CHG  1   5  -1
M  END
>  <s_m_entry_id>  (75) 
88

>  <s_m_entry_name>  (75) 
ZINC000076327999.1

>  <s_m_Source_Path>  (75) 
/home/bhw/schrodinger/schrodinger/0995dock

>  <s_m_Source_File>  (75) 
0995dock_pv.maegz

>  <i_m_Source_File_Index>  (75) 
88

>  <zinc_id>  (75) 
ZINC000076327999

>  <smiles>  (75) 
C[C@@H](C(=O)O)C(=O)Nc1cccc(C(F)(F)F)c1

>  <chiral flag>  (75) 
0

>  <version>  (75) 
0

>  <i_lp_mmshare_version>  (75) 
44012

>  <s_epik_input>  (75) 
Tz1DKFtPSF0pW0NASF0oW0NIM10pQyg9TylbTkhdYzFbY0hdW2NIXVtjSF1jKEMoRikoRilGKVtjSF0x

>  <s_epik_cmdline>  (75) 
J2VwaWtfcHl0aG9uJywgJy1waCcsICc3LjAnLCAnLXRuJywgJzgnLCAnLW1hJywgJzIwMCcsICctaW1hZScsICc8aW5maWxlLm1hZT4nLCAnLW9tYWUnLCAnPG91dGZpbGUubWFlPic=

>  <r_epik_Ionization_Penalty>  (75) 
0.0003

>  <r_epik_Ionization_Penalty_Charging>  (75) 
0.0003

>  <r_epik_Ionization_Penalty_Neutral>  (75) 
0.0000

>  <r_epik_State_Penalty>  (75) 
0.0000

>  <r_epik_Charging_Adjusted_Penalty>  (75) 
0.000270507167442226

>  <i_epik_Tot_Q>  (75) 
-1

>  <i_epik_Tot_abs_Q>  (75) 
1

>  <i_f3d_flags>  (75) 
0

>  <s_lp_Force_Field>  (75) 
OPLS_2005

>  <r_lp_Energy>  (75) 
15.961959

>  <b_lp_Chiralities_Consistent>  (75) 
1

>  <s_lp_Variant>  (75) 
ZINC000076327999-1

>  <s_m_job_name>  (75) 
zinc0995

>  <s_i_glide_gridfile>  (75) 
zincglide

>  <i_i_glide_lignum>  (75) 
23831

>  <i_i_glide_rotatable_bonds>  (75) 
5

>  <r_i_docking_score>  (75) 
-5.96717725996282

>  <r_i_glide_ligand_efficiency>  (75) 
-0.331509847775712

>  <r_i_glide_ligand_efficiency_sa>  (75) 
-0.868801579816646

>  <r_i_glide_ligand_efficiency_ln>  (75) 
-1.53383214543737

>  <r_i_glide_gscore>  (75) 
-5.96717725996282

>  <r_i_glide_lipo>  (75) 
-0.875954044385184

>  <r_i_glide_hbond>  (75) 
-0.237439520984138

>  <r_i_glide_metal>  (75) 
0

>  <r_i_glide_rewards>  (75) 
-2.76799480343224

>  <r_i_glide_evdw>  (75) 
-23.5603179931641

>  <r_i_glide_ecoul>  (75) 
-9.46322917938232

>  <r_i_glide_erotb>  (75) 
0.548991004348513

>  <r_i_glide_esite>  (75) 
-0.0372796189442173

>  <r_i_glide_emodel>  (75) 
-47.660556414882

>  <r_i_glide_energy>  (75) 
-33.0235471725464

>  <r_i_glide_einternal>  (75) 
6.67196559906006

>  <i_i_glide_confnum>  (75) 
3

>  <i_i_glide_posenum>  (75) 
181

>  <r_i_glide_eff_state_penalty>  (75) 
0

>  <r_lp_tautomer_probability>  (75) 
1

>  <s_m_subgroup_title>  (75) 
0995dock_pv

>  <s_m_subgroupid>  (75) 
0995dock_pv

>  <b_m_subgroup_collapsed>  (75) 
0

>  <class>  (75) 
8

>  <isCentroid>  (75) 
flase

$$$$
ZINC000077028701
     RDKit          3D

 21 22  0  0  1  0  0  0  0  0999 V2000
    6.2774   10.3059  -23.4174 O   0  0  0  0  0  0  0  0  0  0  0  0
    5.6906   11.3161  -22.9856 C   0  0  0  0  0  0  0  0  0  0  0  0
    5.9174   12.4706  -23.4158 O   0  0  0  0  0  0  0  0  0  0  0  0
    4.7215   11.1287  -21.8045 C   0  0  1  0  0  0  0  0  0  0  0  0
    3.8242   12.3553  -21.6241 C   0  0  0  0  0  0  0  0  0  0  0  0
    3.9827   13.1643  -20.4779 C   0  0  0  0  0  0  0  0  0  0  0  0
    3.2257   14.3416  -20.3207 C   0  0  0  0  0  0  0  0  0  0  0  0
    2.2944   14.7334  -21.3094 C   0  0  0  0  0  0  0  0  0  0  0  0
    1.5160   15.9769  -21.1595 N   0  0  0  0  0  0  0  0  0  0  0  0
    1.5230   16.5401  -20.0697 O   0  0  0  0  0  0  0  0  0  0  0  0
    0.8970   16.3922  -22.1339 O   0  0  0  0  0  0  0  0  0  0  0  0
    2.1236   13.9140  -22.4478 C   0  0  0  0  0  0  0  0  0  0  0  0
    2.8756   12.7353  -22.6003 C   0  0  0  0  0  0  0  0  0  0  0  0
    3.7602    9.5251  -21.7356 S   0  0  0  0  0  0  0  0  0  0  0  0
    4.7242    8.3616  -21.4804 O   0  0  0  0  0  0  0  0  0  0  0  0
    3.0733    9.2899  -23.4372 C   0  0  0  0  0  0  0  0  0  0  0  0
    2.4671    7.9307  -23.5485 C   0  0  0  0  0  0  0  0  0  0  0  0
    2.3243    7.0780  -24.6027 C   0  0  0  0  0  0  0  0  0  0  0  0
    1.7438    5.8877  -24.0855 C   0  0  0  0  0  0  0  0  0  0  0  0
    1.5235    6.1231  -22.7595 C   0  0  0  0  0  0  0  0  0  0  0  0
    1.9560    7.3657  -22.4154 O   0  0  0  0  0  0  0  0  0  0  0  0
  1  2  2  0
  2  3  1  0
  4  2  1  6
  4  5  1  0
  4 14  1  0
  5  6  2  0
  5 13  1  0
  6  7  1  0
  7  8  2  0
  8  9  1  0
  8 12  1  0
  9 10  2  0
  9 11  1  0
 12 13  2  0
 14 15  2  0
 14 16  1  0
 16 17  1  0
 17 18  2  0
 17 21  1  0
 18 19  1  0
 19 20  2  0
 20 21  1  0
M  CHG  3   3  -1   9   1  11  -1
M  END
>  <s_m_entry_id>  (76) 
83

>  <s_m_entry_name>  (76) 
ZINC000077028701.1

>  <s_m_Source_Path>  (76) 
/home/bhw/schrodinger/schrodinger/0995dock

>  <s_m_Source_File>  (76) 
0995dock_pv.maegz

>  <i_m_Source_File_Index>  (76) 
83

>  <zinc_id>  (76) 
ZINC000077028701

>  <smiles>  (76) 
O=C(O)[C@@H](c1ccc([N+](=O)[O-])cc1)[S@](=O)Cc1ccco1

>  <chiral flag>  (76) 
0

>  <version>  (76) 
0

>  <i_lp_mmshare_version>  (76) 
44012

>  <s_epik_input>  (76) 
Tz1bTitdKFtPLV0pYyhbY0hdW2NIXTEpW2NIXVtjSF1jMVtDQEhdKEMoPU8pW09IXSlbU0BdKD1PKVtDSDJdYzJbY0hdW2NIXVtjSF1vMg==

>  <s_epik_cmdline>  (76) 
J2VwaWtfcHl0aG9uJywgJy1waCcsICc3LjAnLCAnLXRuJywgJzgnLCAnLW1hJywgJzIwMCcsICctaW1hZScsICc8aW5maWxlLm1hZT4nLCAnLW9tYWUnLCAnPG91dGZpbGUubWFlPic=

>  <r_epik_Ionization_Penalty>  (76) 
0.0000

>  <r_epik_Ionization_Penalty_Charging>  (76) 
0.0000

>  <r_epik_Ionization_Penalty_Neutral>  (76) 
0.0000

>  <r_epik_State_Penalty>  (76) 
0.0000

>  <r_epik_Charging_Adjusted_Penalty>  (76) 
1.05683648680399e-05

>  <i_epik_Tot_Q>  (76) 
-1

>  <i_epik_Tot_abs_Q>  (76) 
3

>  <i_f3d_flags>  (76) 
0

>  <s_lp_Force_Field>  (76) 
OPLS_2005

>  <r_lp_Energy>  (76) 
11.156529

>  <b_lp_Chiralities_Consistent>  (76) 
1

>  <s_lp_Variant>  (76) 
ZINC000077028701-1

>  <s_m_job_name>  (76) 
zinc0995

>  <s_i_glide_gridfile>  (76) 
zincglide

>  <i_i_glide_lignum>  (76) 
23862

>  <i_i_glide_rotatable_bonds>  (76) 
6

>  <r_i_docking_score>  (76) 
-5.98035248277047

>  <r_i_glide_ligand_efficiency>  (76) 
-0.284778689655737

>  <r_i_glide_ligand_efficiency_sa>  (76) 
-0.785682811012006

>  <r_i_glide_ligand_efficiency_ln>  (76) 
-1.47863006692496

>  <r_i_glide_gscore>  (76) 
-5.98035248277047

>  <r_i_glide_lipo>  (76) 
-0.729788721678236

>  <r_i_glide_hbond>  (76) 
-0.539087033512888

>  <r_i_glide_metal>  (76) 
0

>  <r_i_glide_rewards>  (76) 
-2.00043053773981

>  <r_i_glide_evdw>  (76) 
-22.6341094970703

>  <r_i_glide_ecoul>  (76) 
-13.2103261947632

>  <r_i_glide_erotb>  (76) 
0.408755050740675

>  <r_i_glide_esite>  (76) 
-0.00654683651221844

>  <r_i_glide_emodel>  (76) 
-52.7043335601864

>  <r_i_glide_energy>  (76) 
-35.8444356918335

>  <r_i_glide_einternal>  (76) 
2.43191957473755

>  <i_i_glide_confnum>  (76) 
12

>  <i_i_glide_posenum>  (76) 
230

>  <r_i_glide_eff_state_penalty>  (76) 
0

>  <r_lp_tautomer_probability>  (76) 
1

>  <s_m_subgroup_title>  (76) 
0995dock_pv

>  <s_m_subgroupid>  (76) 
0995dock_pv

>  <b_m_subgroup_collapsed>  (76) 
0

>  <class>  (76) 
9

>  <isCentroid>  (76) 
flase

$$$$
ZINC000077028706
     RDKit          3D

 21 22  0  0  1  0  0  0  0  0999 V2000
    6.2774   10.3059  -23.4174 O   0  0  0  0  0  0  0  0  0  0  0  0
    5.6906   11.3161  -22.9856 C   0  0  0  0  0  0  0  0  0  0  0  0
    5.9174   12.4706  -23.4158 O   0  0  0  0  0  0  0  0  0  0  0  0
    4.7215   11.1287  -21.8045 C   0  0  1  0  0  0  0  0  0  0  0  0
    3.8242   12.3553  -21.6241 C   0  0  0  0  0  0  0  0  0  0  0  0
    3.9827   13.1643  -20.4779 C   0  0  0  0  0  0  0  0  0  0  0  0
    3.2257   14.3416  -20.3207 C   0  0  0  0  0  0  0  0  0  0  0  0
    2.2944   14.7334  -21.3094 C   0  0  0  0  0  0  0  0  0  0  0  0
    1.5160   15.9769  -21.1595 N   0  0  0  0  0  0  0  0  0  0  0  0
    1.5230   16.5401  -20.0697 O   0  0  0  0  0  0  0  0  0  0  0  0
    0.8970   16.3922  -22.1339 O   0  0  0  0  0  0  0  0  0  0  0  0
    2.1236   13.9140  -22.4478 C   0  0  0  0  0  0  0  0  0  0  0  0
    2.8756   12.7353  -22.6003 C   0  0  0  0  0  0  0  0  0  0  0  0
    3.7602    9.5251  -21.7356 S   0  0  0  0  0  0  0  0  0  0  0  0
    4.7242    8.3616  -21.4804 O   0  0  0  0  0  0  0  0  0  0  0  0
    3.0733    9.2899  -23.4372 C   0  0  0  0  0  0  0  0  0  0  0  0
    2.4671    7.9307  -23.5485 C   0  0  0  0  0  0  0  0  0  0  0  0
    2.3243    7.0780  -24.6027 C   0  0  0  0  0  0  0  0  0  0  0  0
    1.7438    5.8877  -24.0855 C   0  0  0  0  0  0  0  0  0  0  0  0
    1.5235    6.1231  -22.7595 C   0  0  0  0  0  0  0  0  0  0  0  0
    1.9560    7.3657  -22.4154 O   0  0  0  0  0  0  0  0  0  0  0  0
  1  2  2  0
  2  3  1  0
  4  2  1  6
  4  5  1  0
  4 14  1  0
  5  6  2  0
  5 13  1  0
  6  7  1  0
  7  8  2  0
  8  9  1  0
  8 12  1  0
  9 10  2  0
  9 11  1  0
 12 13  2  0
 14 15  2  0
 14 16  1  0
 16 17  1  0
 17 18  2  0
 17 21  1  0
 18 19  1  0
 19 20  2  0
 20 21  1  0
M  CHG  3   3  -1   9   1  11  -1
M  END
>  <s_m_entry_id>  (77) 
84

>  <s_m_entry_name>  (77) 
ZINC000077028706.1

>  <s_m_Source_Path>  (77) 
/home/bhw/schrodinger/schrodinger/0995dock

>  <s_m_Source_File>  (77) 
0995dock_pv.maegz

>  <i_m_Source_File_Index>  (77) 
84

>  <zinc_id>  (77) 
ZINC000077028706

>  <smiles>  (77) 
O=C(O)[C@@H](c1ccc([N+](=O)[O-])cc1)[S@@](=O)Cc1ccco1

>  <chiral flag>  (77) 
0

>  <version>  (77) 
0

>  <i_lp_mmshare_version>  (77) 
44012

>  <s_epik_input>  (77) 
Tz1bTitdKFtPLV0pYyhbY0hdW2NIXTEpW2NIXVtjSF1jMVtDQEhdKEMoPU8pW09IXSlbU0BAXSg9TylbQ0gyXWMyW2NIXVtjSF1bY0hdbzI=

>  <s_epik_cmdline>  (77) 
J2VwaWtfcHl0aG9uJywgJy1waCcsICc3LjAnLCAnLXRuJywgJzgnLCAnLW1hJywgJzIwMCcsICctaW1hZScsICc8aW5maWxlLm1hZT4nLCAnLW9tYWUnLCAnPG91dGZpbGUubWFlPic=

>  <r_epik_Ionization_Penalty>  (77) 
0.0000

>  <r_epik_Ionization_Penalty_Charging>  (77) 
0.0000

>  <r_epik_Ionization_Penalty_Neutral>  (77) 
0.0000

>  <r_epik_State_Penalty>  (77) 
0.0000

>  <r_epik_Charging_Adjusted_Penalty>  (77) 
1.05683648680399e-05

>  <i_epik_Tot_Q>  (77) 
-1

>  <i_epik_Tot_abs_Q>  (77) 
3

>  <i_f3d_flags>  (77) 
0

>  <s_lp_Force_Field>  (77) 
OPLS_2005

>  <r_lp_Energy>  (77) 
11.156529

>  <b_lp_Chiralities_Consistent>  (77) 
1

>  <s_lp_Variant>  (77) 
ZINC000077028706-2

>  <s_m_job_name>  (77) 
zinc0995

>  <s_i_glide_gridfile>  (77) 
zincglide

>  <i_i_glide_lignum>  (77) 
23865

>  <i_i_glide_rotatable_bonds>  (77) 
6

>  <r_i_docking_score>  (77) 
-5.98035248277047

>  <r_i_glide_ligand_efficiency>  (77) 
-0.284778689655737

>  <r_i_glide_ligand_efficiency_sa>  (77) 
-0.785682811012006

>  <r_i_glide_ligand_efficiency_ln>  (77) 
-1.47863006692496

>  <r_i_glide_gscore>  (77) 
-5.98035248277047

>  <r_i_glide_lipo>  (77) 
-0.729788721678236

>  <r_i_glide_hbond>  (77) 
-0.539087033512888

>  <r_i_glide_metal>  (77) 
0

>  <r_i_glide_rewards>  (77) 
-2.00043053773981

>  <r_i_glide_evdw>  (77) 
-22.6341094970703

>  <r_i_glide_ecoul>  (77) 
-13.2103261947632

>  <r_i_glide_erotb>  (77) 
0.408755050740675

>  <r_i_glide_esite>  (77) 
-0.00654683651221844

>  <r_i_glide_emodel>  (77) 
-52.7043335601864

>  <r_i_glide_energy>  (77) 
-35.8444356918335

>  <r_i_glide_einternal>  (77) 
2.43191957473755

>  <i_i_glide_confnum>  (77) 
12

>  <i_i_glide_posenum>  (77) 
230

>  <r_i_glide_eff_state_penalty>  (77) 
0

>  <r_lp_tautomer_probability>  (77) 
1

>  <s_m_subgroup_title>  (77) 
0995dock_pv

>  <s_m_subgroupid>  (77) 
0995dock_pv

>  <b_m_subgroup_collapsed>  (77) 
0

>  <class>  (77) 
9

>  <isCentroid>  (77) 
flase

$$$$
ZINC000078657717
     RDKit          3D

 19 19  0  0  1  0  0  0  0  0999 V2000
    5.2700   12.5080  -21.5762 C   0  0  0  0  0  0  0  0  0  0  0  0
    5.5975   11.0721  -22.6512 S   0  0  0  0  0  0  0  0  0  0  0  0
    6.3232   11.6030  -23.8165 O   0  0  0  0  0  0  0  0  0  0  0  0
    6.3237   10.1142  -21.8172 O   0  0  0  0  0  0  0  0  0  0  0  0
    4.0980   10.6183  -23.0170 N   0  0  0  0  0  0  0  0  0  0  0  0
    3.5076    9.4676  -22.6174 C   0  0  0  0  0  0  0  0  0  0  0  0
    3.9635    8.5280  -21.9650 O   0  0  0  0  0  0  0  0  0  0  0  0
    2.0499    9.4031  -23.0950 C   0  0  0  0  0  0  0  0  0  0  0  0
    1.8184    8.3542  -24.2020 C   0  0  0  0  0  0  0  0  0  0  0  0
    1.3777    6.9991  -23.6748 C   0  0  0  0  0  0  0  0  0  0  0  0
    2.1757    5.8513  -23.8622 C   0  0  0  0  0  0  0  0  0  0  0  0
    1.7297    4.5929  -23.4093 C   0  0  0  0  0  0  0  0  0  0  0  0
    0.4841    4.4730  -22.7504 C   0  0  0  0  0  0  0  0  0  0  0  0
   -0.0244    3.1317  -22.2423 C   0  0  0  0  0  0  0  0  0  0  0  0
    0.7552    2.1192  -22.6172 F   0  0  0  0  0  0  0  0  0  0  0  0
   -0.0766    3.1568  -20.9109 F   0  0  0  0  0  0  0  0  0  0  0  0
   -1.2522    2.9083  -22.7133 F   0  0  0  0  0  0  0  0  0  0  0  0
   -0.3045    5.6252  -22.5565 C   0  0  0  0  0  0  0  0  0  0  0  0
    0.1362    6.8786  -23.0172 C   0  0  0  0  0  0  0  0  0  0  0  0
  1  2  1  0
  2  3  2  0
  2  4  2  0
  2  5  1  0
  5  6  1  0
  6  7  2  0
  6  8  1  0
  8  9  1  0
  9 10  1  0
 10 11  2  0
 10 19  1  0
 11 12  1  0
 12 13  2  0
 13 14  1  0
 13 18  1  0
 14 15  1  0
 14 16  1  0
 14 17  1  0
 18 19  2  0
M  CHG  1   5  -1
M  END
>  <s_m_entry_id>  (78) 
26

>  <s_m_entry_name>  (78) 
ZINC000078657717.1

>  <s_m_Source_Path>  (78) 
/home/bhw/schrodinger/schrodinger/0995dock

>  <s_m_Source_File>  (78) 
0995dock_pv.maegz

>  <i_m_Source_File_Index>  (78) 
26

>  <zinc_id>  (78) 
ZINC000078657717

>  <smiles>  (78) 
CS(=O)(=O)/N=C(\O)CCc1ccc(C(F)(F)F)cc1

>  <chiral flag>  (78) 
0

>  <version>  (78) 
0

>  <i_lp_mmshare_version>  (78) 
44012

>  <s_epik_input>  (78) 
W0NIM11TKD1PKSg9TykvTj1DKFxbT0hdKVtDSDJdW0NIMl1jMVtjSF1bY0hdYyhDKEYpKEYpRilbY0hdW2NIXTE=

>  <s_epik_cmdline>  (78) 
J2VwaWtfcHl0aG9uJywgJy1waCcsICc3LjAnLCAnLXRuJywgJzgnLCAnLW1hJywgJzIwMCcsICctaW1hZScsICc8aW5maWxlLm1hZT4nLCAnLW9tYWUnLCAnPG91dGZpbGUubWFlPic=

>  <r_epik_Ionization_Penalty>  (78) 
0.0180

>  <r_epik_Ionization_Penalty_Charging>  (78) 
0.0180

>  <r_epik_Ionization_Penalty_Neutral>  (78) 
0.0000

>  <r_epik_State_Penalty>  (78) 
0.0143

>  <r_epik_Charging_Adjusted_Penalty>  (78) 
0.0323583667723515

>  <i_epik_Tot_Q>  (78) 
-1

>  <i_epik_Tot_abs_Q>  (78) 
1

>  <i_f3d_flags>  (78) 
0

>  <s_lp_Force_Field>  (78) 
OPLS_2005

>  <r_lp_Energy>  (78) 
-0.380952

>  <b_lp_Chiralities_Consistent>  (78) 
1

>  <s_lp_Variant>  (78) 
ZINC000078657717-1

>  <s_m_job_name>  (78) 
zinc0995

>  <s_i_glide_gridfile>  (78) 
zincglide

>  <i_i_glide_lignum>  (78) 
23937

>  <i_i_glide_rotatable_bonds>  (78) 
6

>  <r_i_docking_score>  (78) 
-6.3349138786486

>  <r_i_glide_ligand_efficiency>  (78) 
-0.333416519928873

>  <r_i_glide_ligand_efficiency_sa>  (78) 
-0.889689190616127

>  <r_i_glide_ligand_efficiency_ln>  (78) 
-1.60603672971189

>  <r_i_glide_gscore>  (78) 
-6.3492138786486

>  <r_i_glide_lipo>  (78) 
-1.1996118916604

>  <r_i_glide_hbond>  (78) 
0

>  <r_i_glide_metal>  (78) 
0

>  <r_i_glide_rewards>  (78) 
-2.03014942495996

>  <r_i_glide_evdw>  (78) 
-22.5999279022217

>  <r_i_glide_ecoul>  (78) 
-18.1707096099854

>  <r_i_glide_erotb>  (78) 
0.84466284757934

>  <r_i_glide_esite>  (78) 
-0.108512572998683

>  <r_i_glide_emodel>  (78) 
-56.6047965370925

>  <r_i_glide_energy>  (78) 
-40.770637512207

>  <r_i_glide_einternal>  (78) 
5.78821992874146

>  <i_i_glide_confnum>  (78) 
60

>  <i_i_glide_posenum>  (78) 
26

>  <r_i_glide_eff_state_penalty>  (78) 
0.0143

>  <s_m_subgroup_title>  (78) 
0995dock_pv

>  <s_m_subgroupid>  (78) 
0995dock_pv

>  <b_m_subgroup_collapsed>  (78) 
0

>  <class>  (78) 
9

>  <isCentroid>  (78) 
flase

$$$$
ZINC000082501894
     RDKit          3D

 15 15  0  0  1  0  0  0  0  0999 V2000
    6.7231   10.9137  -23.4174 O   0  0  0  0  0  0  0  0  0  0  0  0
    5.5716   11.3051  -23.1382 C   0  0  0  0  0  0  0  0  0  0  0  0
    5.2855   12.5142  -23.0170 O   0  0  0  0  0  0  0  0  0  0  0  0
    4.5378   10.3073  -23.0154 C   0  0  0  0  0  0  0  0  0  0  0  0
    3.7510    9.3754  -22.9603 C   0  0  0  0  0  0  0  0  0  0  0  0
    2.8823    8.2138  -22.8954 C   0  0  0  0  0  0  0  0  0  0  0  0
    2.7070    7.3984  -24.0324 C   0  0  0  0  0  0  0  0  0  0  0  0
    1.9230    6.2312  -23.9480 C   0  0  0  0  0  0  0  0  0  0  0  0
    1.2988    5.8756  -22.7320 C   0  0  0  0  0  0  0  0  0  0  0  0
    0.4642    4.6062  -22.6387 C   0  0  0  0  0  0  0  0  0  0  0  0
   -0.7846    4.8721  -23.0169 F   0  0  0  0  0  0  0  0  0  0  0  0
    0.9615    3.6551  -23.4293 F   0  0  0  0  0  0  0  0  0  0  0  0
    0.4437    4.1391  -21.3902 F   0  0  0  0  0  0  0  0  0  0  0  0
    1.4518    6.7151  -21.6064 C   0  0  0  0  0  0  0  0  0  0  0  0
    2.2467    7.8754  -21.6845 C   0  0  0  0  0  0  0  0  0  0  0  0
  1  2  2  0
  2  3  1  0
  2  4  1  0
  4  5  3  0
  5  6  1  0
  6  7  2  0
  6 15  1  0
  7  8  1  0
  8  9  2  0
  9 10  1  0
  9 14  1  0
 10 11  1  0
 10 12  1  0
 10 13  1  0
 14 15  2  0
M  CHG  1   3  -1
M  END
>  <s_m_entry_id>  (79) 
109

>  <s_m_entry_name>  (79) 
ZINC000082501894.1

>  <s_m_Source_Path>  (79) 
/home/bhw/schrodinger/schrodinger/0995dock

>  <s_m_Source_File>  (79) 
0995dock_pv.maegz

>  <i_m_Source_File_Index>  (79) 
109

>  <zinc_id>  (79) 
ZINC000082501894

>  <smiles>  (79) 
O=C(O)C#Cc1ccc(C(F)(F)F)cc1

>  <chiral flag>  (79) 
0

>  <version>  (79) 
0

>  <i_lp_mmshare_version>  (79) 
44012

>  <s_epik_input>  (79) 
Tz1DKFtPSF0pQyNDYzFbY0hdW2NIXWMoQyhGKShGKUYpW2NIXVtjSF0x

>  <s_epik_cmdline>  (79) 
J2VwaWtfcHl0aG9uJywgJy1waCcsICc3LjAnLCAnLXRuJywgJzgnLCAnLW1hJywgJzIwMCcsICctaW1hZScsICc8aW5maWxlLm1hZT4nLCAnLW9tYWUnLCAnPG91dGZpbGUubWFlPic=

>  <r_epik_Ionization_Penalty>  (79) 
0.0000

>  <r_epik_Ionization_Penalty_Charging>  (79) 
0.0000

>  <r_epik_Ionization_Penalty_Neutral>  (79) 
0.0000

>  <r_epik_State_Penalty>  (79) 
0.0000

>  <r_epik_Charging_Adjusted_Penalty>  (79) 
8.77757815401303e-06

>  <i_epik_Tot_Q>  (79) 
-1

>  <i_epik_Tot_abs_Q>  (79) 
1

>  <i_f3d_flags>  (79) 
0

>  <s_lp_Force_Field>  (79) 
OPLS_2005

>  <r_lp_Energy>  (79) 
5.809821

>  <b_lp_Chiralities_Consistent>  (79) 
1

>  <s_lp_Variant>  (79) 
ZINC000082501894-1

>  <s_m_job_name>  (79) 
zinc0995

>  <s_i_glide_gridfile>  (79) 
zincglide

>  <i_i_glide_lignum>  (79) 
24133

>  <i_i_glide_rotatable_bonds>  (79) 
3

>  <r_i_docking_score>  (79) 
-5.90431217707274

>  <r_i_glide_ligand_efficiency>  (79) 
-0.39362081180485

>  <r_i_glide_ligand_efficiency_sa>  (79) 
-0.9707523979046

>  <r_i_glide_ligand_efficiency_ln>  (79) 
-1.59229564241544

>  <r_i_glide_gscore>  (79) 
-5.90431217707274

>  <r_i_glide_lipo>  (79) 
-0.808575039967481

>  <r_i_glide_hbond>  (79) 
-0.298338854014793

>  <r_i_glide_metal>  (79) 
0

>  <r_i_glide_rewards>  (79) 
-3.3043130085494

>  <r_i_glide_evdw>  (79) 
-18.8485164642334

>  <r_i_glide_ecoul>  (79) 
-7.09735298156738

>  <r_i_glide_erotb>  (79) 
0.513943495905709

>  <r_i_glide_esite>  (79) 
0

>  <r_i_glide_emodel>  (79) 
-40.3700590727524

>  <r_i_glide_energy>  (79) 
-25.9458694458008

>  <r_i_glide_einternal>  (79) 
-0.0760685205459595

>  <i_i_glide_confnum>  (79) 
1

>  <i_i_glide_posenum>  (79) 
315

>  <r_i_glide_eff_state_penalty>  (79) 
0

>  <r_lp_tautomer_probability>  (79) 
1

>  <s_m_subgroup_title>  (79) 
0995dock_pv

>  <s_m_subgroupid>  (79) 
0995dock_pv

>  <b_m_subgroup_collapsed>  (79) 
0

>  <class>  (79) 
3

>  <isCentroid>  (79) 
flase

$$$$
ZINC000089261928
     RDKit          3D

 22 23  0  0  1  0  0  0  0  0999 V2000
    5.9226   12.6061  -22.6561 O   0  0  0  0  0  0  0  0  0  0  0  0
    5.7800   11.4232  -23.0264 C   0  0  0  0  0  0  0  0  0  0  0  0
    6.6037   10.9136  -23.8166 O   0  0  0  0  0  0  0  0  0  0  0  0
    4.6193   10.6198  -22.5608 C   0  0  0  0  0  0  0  0  0  0  0  0
    4.3236    9.4258  -23.0164 N   0  0  0  0  0  0  0  0  0  0  0  0
    3.1879    9.1003  -22.3564 N   0  0  0  0  0  0  0  0  0  0  0  0
    2.5049    7.8808  -22.5801 C   0  0  0  0  0  0  0  0  0  0  0  0
    2.5811    7.2432  -23.8388 C   0  0  0  0  0  0  0  0  0  0  0  0
    1.9243    6.0183  -24.0523 C   0  0  0  0  0  0  0  0  0  0  0  0
    1.1912    5.4177  -23.0126 C   0  0  0  0  0  0  0  0  0  0  0  0
    1.1032    6.0464  -21.7512 C   0  0  0  0  0  0  0  0  0  0  0  0
    0.3329    5.4065  -20.6065 C   0  0  0  0  0  0  0  0  0  0  0  0
    1.1223    5.3182  -19.5357 F   0  0  0  0  0  0  0  0  0  0  0  0
   -0.7215    6.1625  -20.3033 F   0  0  0  0  0  0  0  0  0  0  0  0
   -0.0931    4.1814  -20.9169 F   0  0  0  0  0  0  0  0  0  0  0  0
    1.7512    7.2835  -21.5457 C   0  0  0  0  0  0  0  0  0  0  0  0
    2.7653   10.0314  -21.4677 N   0  0  0  0  0  0  0  0  0  0  0  0
    3.6426   11.0010  -21.5947 C   0  0  0  0  0  0  0  0  0  0  0  0
    3.5272   12.2950  -20.8288 C   0  0  0  0  0  0  0  0  0  0  0  0
    2.5783   12.2257  -19.8912 F   0  0  0  0  0  0  0  0  0  0  0  0
    4.6608   12.6088  -20.2044 F   0  0  0  0  0  0  0  0  0  0  0  0
    3.2046   13.3049  -21.6384 F   0  0  0  0  0  0  0  0  0  0  0  0
  1  2  2  0
  2  3  1  0
  2  4  1  0
  4  5  2  0
  4 18  1  0
  5  6  1  0
  6  7  1  0
  6 17  1  0
  7  8  2  0
  7 16  1  0
  8  9  1  0
  9 10  2  0
 10 11  1  0
 11 12  1  0
 11 16  2  0
 12 13  1  0
 12 14  1  0
 12 15  1  0
 17 18  2  0
 18 19  1  0
 19 20  1  0
 19 21  1  0
 19 22  1  0
M  CHG  1   3  -1
M  END
>  <s_m_entry_id>  (80) 
64

>  <s_m_entry_name>  (80) 
ZINC000089261928.1

>  <s_m_Source_Path>  (80) 
/home/bhw/schrodinger/schrodinger/0995dock

>  <s_m_Source_File>  (80) 
0995dock_pv.maegz

>  <i_m_Source_File_Index>  (80) 
64

>  <zinc_id>  (80) 
ZINC000089261928

>  <smiles>  (80) 
O=C(O)c1nn(-c2cccc(C(F)(F)F)c2)nc1C(F)(F)F

>  <chiral flag>  (80) 
0

>  <version>  (80) 
0

>  <i_lp_mmshare_version>  (80) 
44012

>  <s_epik_input>  (80) 
Tz1DKFtPSF0pYzFubihuYzFDKEYpKEYpRiktYzJbY0hdW2NIXVtjSF1jKEMoRikoRilGKVtjSF0y

>  <s_epik_cmdline>  (80) 
J2VwaWtfcHl0aG9uJywgJy1waCcsICc3LjAnLCAnLXRuJywgJzgnLCAnLW1hJywgJzIwMCcsICctaW1hZScsICc8aW5maWxlLm1hZT4nLCAnLW9tYWUnLCAnPG91dGZpbGUubWFlPic=

>  <r_epik_Ionization_Penalty>  (80) 
0.0000

>  <r_epik_Ionization_Penalty_Charging>  (80) 
0.0000

>  <r_epik_Ionization_Penalty_Neutral>  (80) 
0.0000

>  <r_epik_State_Penalty>  (80) 
0.0000

>  <r_epik_Charging_Adjusted_Penalty>  (80) 
6.51597357440013e-07

>  <i_epik_Tot_Q>  (80) 
-1

>  <i_epik_Tot_abs_Q>  (80) 
1

>  <i_f3d_flags>  (80) 
0

>  <s_lp_Force_Field>  (80) 
OPLS_2005

>  <r_lp_Energy>  (80) 
13.52536

>  <b_lp_Chiralities_Consistent>  (80) 
1

>  <s_lp_Variant>  (80) 
ZINC000089261928-1

>  <s_m_job_name>  (80) 
zinc0995

>  <s_i_glide_gridfile>  (80) 
zincglide

>  <i_i_glide_lignum>  (80) 
24959

>  <i_i_glide_rotatable_bonds>  (80) 
4

>  <r_i_docking_score>  (80) 
-6.07465562391368

>  <r_i_glide_ligand_efficiency>  (80) 
-0.276120710177894

>  <r_i_glide_ligand_efficiency_sa>  (80) 
-0.773701089129777

>  <r_i_glide_ligand_efficiency_ln>  (80) 
-1.48486741293213

>  <r_i_glide_gscore>  (80) 
-6.07465562391368

>  <r_i_glide_lipo>  (80) 
-0.749191207969792

>  <r_i_glide_hbond>  (80) 
-0.333858460842438

>  <r_i_glide_metal>  (80) 
0

>  <r_i_glide_rewards>  (80) 
-2.82550668164716

>  <r_i_glide_evdw>  (80) 
-23.5678367614746

>  <r_i_glide_ecoul>  (80) 
-7.01313352584839

>  <r_i_glide_erotb>  (80) 
0.124731997888813

>  <r_i_glide_esite>  (80) 
-0.060469404392109

>  <r_i_glide_emodel>  (80) 
-47.0657115891652

>  <r_i_glide_energy>  (80) 
-30.580970287323

>  <r_i_glide_einternal>  (80) 
0.937773883342743

>  <i_i_glide_confnum>  (80) 
1

>  <i_i_glide_posenum>  (80) 
377

>  <r_i_glide_eff_state_penalty>  (80) 
0

>  <r_lp_tautomer_probability>  (80) 
1

>  <s_m_subgroup_title>  (80) 
0995dock_pv

>  <s_m_subgroupid>  (80) 
0995dock_pv

>  <b_m_subgroup_collapsed>  (80) 
0

>  <class>  (80) 
7

>  <isCentroid>  (80) 
flase

$$$$
ZINC000095094018
     RDKit          3D

 19 19  0  0  1  0  0  0  0  0999 V2000
    6.7236   10.9135  -23.3360 O   0  0  0  0  0  0  0  0  0  0  0  0
    5.6549   11.4820  -23.0168 C   0  0  0  0  0  0  0  0  0  0  0  0
    5.5433   12.7282  -23.0171 O   0  0  0  0  0  0  0  0  0  0  0  0
    4.4634   10.6350  -22.6891 C   0  0  0  0  0  0  0  0  0  0  0  0
    3.1971   11.2521  -22.4771 C   0  0  0  0  0  0  0  0  0  0  0  0
    2.3509   10.1964  -22.2988 C   0  0  0  0  0  0  0  0  0  0  0  0
    3.1061    9.0468  -22.3978 N   0  0  0  0  0  0  0  0  0  0  0  0
    2.6683    7.6686  -22.3209 C   0  0  0  0  0  0  0  0  0  0  0  0
    2.1571    7.1447  -23.6774 C   0  0  0  0  0  0  0  0  0  0  0  0
    3.0736    7.4046  -24.6141 F   0  0  0  0  0  0  0  0  0  0  0  0
    1.0391    7.8012  -23.9913 F   0  0  0  0  0  0  0  0  0  0  0  0
    1.8869    5.6227  -23.7102 C   0  0  0  0  0  0  0  0  0  0  0  0
    3.0214    4.9773  -23.4298 F   0  0  0  0  0  0  0  0  0  0  0  0
    1.5237    5.3134  -24.9539 F   0  0  0  0  0  0  0  0  0  0  0  0
    0.7888    5.0990  -22.7584 C   0  0  0  0  0  0  0  0  0  0  0  0
   -0.3699    5.7149  -22.9913 F   0  0  0  0  0  0  0  0  0  0  0  0
    0.6205    3.7894  -22.9447 F   0  0  0  0  0  0  0  0  0  0  0  0
    1.1233    5.3009  -21.4845 F   0  0  0  0  0  0  0  0  0  0  0  0
    4.4096    9.3136  -22.6195 N   0  0  0  0  0  0  0  0  0  0  0  0
  1  2  2  0
  2  3  1  0
  2  4  1  0
  4  5  1  0
  4 19  2  0
  5  6  2  0
  6  7  1  0
  7  8  1  0
  7 19  1  0
  8  9  1  0
  9 10  1  0
  9 11  1  0
  9 12  1  0
 12 13  1  0
 12 14  1  0
 12 15  1  0
 15 16  1  0
 15 17  1  0
 15 18  1  0
M  CHG  1   3  -1
M  END
>  <s_m_entry_id>  (81) 
94

>  <s_m_entry_name>  (81) 
ZINC000095094018.1

>  <s_m_Source_Path>  (81) 
/home/bhw/schrodinger/schrodinger/0995dock

>  <s_m_Source_File>  (81) 
0995dock_pv.maegz

>  <i_m_Source_File_Index>  (81) 
94

>  <zinc_id>  (81) 
ZINC000095094018

>  <smiles>  (81) 
O=C(O)c1ccn(CC(F)(F)C(F)(F)C(F)(F)F)n1

>  <chiral flag>  (81) 
0

>  <version>  (81) 
0

>  <i_lp_mmshare_version>  (81) 
44012

>  <s_epik_input>  (81) 
Tz1DKFtPSF0pYzFbY0hdW2NIXW4objEpW0NIMl1DKEYpKEYpQyhGKShGKUMoRikoRilG

>  <s_epik_cmdline>  (81) 
J2VwaWtfcHl0aG9uJywgJy1waCcsICc3LjAnLCAnLXRuJywgJzgnLCAnLW1hJywgJzIwMCcsICctaW1hZScsICc8aW5maWxlLm1hZT4nLCAnLW9tYWUnLCAnPG91dGZpbGUubWFlPic=

>  <r_epik_Ionization_Penalty>  (81) 
0.0003

>  <r_epik_Ionization_Penalty_Charging>  (81) 
0.0003

>  <r_epik_Ionization_Penalty_Neutral>  (81) 
0.0000

>  <r_epik_State_Penalty>  (81) 
0.0000

>  <r_epik_Charging_Adjusted_Penalty>  (81) 
0.000283954223991516

>  <i_epik_Tot_Q>  (81) 
-1

>  <i_epik_Tot_abs_Q>  (81) 
1

>  <i_f3d_flags>  (81) 
0

>  <s_lp_Force_Field>  (81) 
OPLS_2005

>  <r_lp_Energy>  (81) 
3.46941

>  <b_lp_Chiralities_Consistent>  (81) 
1

>  <s_lp_Variant>  (81) 
ZINC000095094018-1

>  <s_m_job_name>  (81) 
zinc0995

>  <s_i_glide_gridfile>  (81) 
zincglide

>  <i_i_glide_lignum>  (81) 
25225

>  <i_i_glide_rotatable_bonds>  (81) 
5

>  <r_i_docking_score>  (81) 
-5.94534422599373

>  <r_i_glide_ligand_efficiency>  (81) 
-0.31291285399967

>  <r_i_glide_ligand_efficiency_sa>  (81) 
-0.834977174699496

>  <r_i_glide_ligand_efficiency_ln>  (81) 
-1.50727245557495

>  <r_i_glide_gscore>  (81) 
-5.94534422599373

>  <r_i_glide_lipo>  (81) 
-0.648729872772343

>  <r_i_glide_hbond>  (81) 
-0.28248010181831

>  <r_i_glide_metal>  (81) 
0

>  <r_i_glide_rewards>  (81) 
-3.14906285649739

>  <r_i_glide_evdw>  (81) 
-19.109992980957

>  <r_i_glide_ecoul>  (81) 
-8.90900135040283

>  <r_i_glide_erotb>  (81) 
0.446497442171084

>  <r_i_glide_esite>  (81) 
-0.0197189854685001

>  <r_i_glide_emodel>  (81) 
-42.7263808491615

>  <r_i_glide_energy>  (81) 
-28.0189943313599

>  <r_i_glide_einternal>  (81) 
1.47962999343872

>  <i_i_glide_confnum>  (81) 
5

>  <i_i_glide_posenum>  (81) 
150

>  <r_i_glide_eff_state_penalty>  (81) 
0

>  <r_lp_tautomer_probability>  (81) 
1

>  <s_m_subgroup_title>  (81) 
0995dock_pv

>  <s_m_subgroupid>  (81) 
0995dock_pv

>  <b_m_subgroup_collapsed>  (81) 
0

>  <class>  (81) 
10

>  <isCentroid>  (81) 
flase

$$$$
ZINC000095096421
     RDKit          3D

 20 20  0  0  1  0  0  0  0  0999 V2000
    5.9221   12.5508  -23.0322 O   0  0  0  0  0  0  0  0  0  0  0  0
    5.8909   11.3086  -22.9413 C   0  0  0  0  0  0  0  0  0  0  0  0
    6.3237   10.5137  -23.8052 O   0  0  0  0  0  0  0  0  0  0  0  0
    5.3214   10.7325  -21.6470 C   0  0  0  0  0  0  0  0  0  0  0  0
    4.5585    9.5387  -21.8334 O   0  0  0  0  0  0  0  0  0  0  0  0
    3.3981    9.6158  -22.6694 C   0  0  1  0  0  0  0  0  0  0  0  0
    2.7223    8.2532  -22.7005 C   0  0  0  0  0  0  0  0  0  0  0  0
    2.1897    7.7073  -21.5145 C   0  0  0  0  0  0  0  0  0  0  0  0
    1.5224    6.4686  -21.5396 C   0  0  0  0  0  0  0  0  0  0  0  0
    1.4066    5.7422  -22.7446 C   0  0  0  0  0  0  0  0  0  0  0  0
    0.7044    4.3931  -22.7761 C   0  0  0  0  0  0  0  0  0  0  0  0
    1.4603    3.5016  -23.4173 F   0  0  0  0  0  0  0  0  0  0  0  0
    0.4653    3.9346  -21.5483 F   0  0  0  0  0  0  0  0  0  0  0  0
   -0.4575    4.5149  -23.4149 F   0  0  0  0  0  0  0  0  0  0  0  0
    1.9495    6.2843  -23.9291 C   0  0  0  0  0  0  0  0  0  0  0  0
    2.5965    7.5354  -23.9101 C   0  0  0  0  0  0  0  0  0  0  0  0
    2.3949   10.7240  -22.2390 C   0  0  0  0  0  0  0  0  0  0  0  0
    2.2231   10.7222  -20.9167 F   0  0  0  0  0  0  0  0  0  0  0  0
    2.8171   11.9290  -22.6204 F   0  0  0  0  0  0  0  0  0  0  0  0
    1.2096   10.5066  -22.8102 F   0  0  0  0  0  0  0  0  0  0  0  0
  1  2  2  0
  2  3  1  0
  2  4  1  0
  4  5  1  0
  6  5  1  1
  6  7  1  0
  6 17  1  0
  7  8  2  0
  7 16  1  0
  8  9  1  0
  9 10  2  0
 10 11  1  0
 10 15  1  0
 11 12  1  0
 11 13  1  0
 11 14  1  0
 15 16  2  0
 17 18  1  0
 17 19  1  0
 17 20  1  0
M  CHG  1   3  -1
M  END
>  <s_m_entry_id>  (82) 
98

>  <s_m_entry_name>  (82) 
ZINC000095096421.1

>  <s_m_Source_Path>  (82) 
/home/bhw/schrodinger/schrodinger/0995dock

>  <s_m_Source_File>  (82) 
0995dock_pv.maegz

>  <i_m_Source_File_Index>  (82) 
98

>  <zinc_id>  (82) 
ZINC000095096421

>  <smiles>  (82) 
O=C(O)CO[C@@H](c1ccc(C(F)(F)F)cc1)C(F)(F)F

>  <chiral flag>  (82) 
0

>  <version>  (82) 
0

>  <i_lp_mmshare_version>  (82) 
44012

>  <s_epik_input>  (82) 
Tz1DKFtPSF0pW0NIMl1PW0NASF0oQyhGKShGKUYpYzFbY0hdW2NIXWMoQyhGKShGKUYpW2NIXVtjSF0x

>  <s_epik_cmdline>  (82) 
J2VwaWtfcHl0aG9uJywgJy1waCcsICc3LjAnLCAnLXRuJywgJzgnLCAnLW1hJywgJzIwMCcsICctaW1hZScsICc8aW5maWxlLm1hZT4nLCAnLW9tYWUnLCAnPG91dGZpbGUubWFlPic=

>  <r_epik_Ionization_Penalty>  (82) 
0.0002

>  <r_epik_Ionization_Penalty_Charging>  (82) 
0.0002

>  <r_epik_Ionization_Penalty_Neutral>  (82) 
0.0000

>  <r_epik_State_Penalty>  (82) 
0.0000

>  <r_epik_Charging_Adjusted_Penalty>  (82) 
0.00018956017281386

>  <i_epik_Tot_Q>  (82) 
-1

>  <i_epik_Tot_abs_Q>  (82) 
1

>  <i_f3d_flags>  (82) 
0

>  <s_lp_Force_Field>  (82) 
OPLS_2005

>  <r_lp_Energy>  (82) 
12.769759

>  <b_lp_Chiralities_Consistent>  (82) 
1

>  <s_lp_Variant>  (82) 
ZINC000095096421-1

>  <s_m_job_name>  (82) 
zinc0995

>  <s_i_glide_gridfile>  (82) 
zincglide

>  <i_i_glide_lignum>  (82) 
25235

>  <i_i_glide_rotatable_bonds>  (82) 
6

>  <r_i_docking_score>  (82) 
-5.9364041666532

>  <r_i_glide_ligand_efficiency>  (82) 
-0.29682020833266

>  <r_i_glide_ligand_efficiency_sa>  (82) 
-0.805694001654995

>  <r_i_glide_ligand_efficiency_ln>  (82) 
-1.48568616719986

>  <r_i_glide_gscore>  (82) 
-5.9364041666532

>  <r_i_glide_lipo>  (82) 
-0.847757503693054

>  <r_i_glide_hbond>  (82) 
-0.255348644429317

>  <r_i_glide_metal>  (82) 
0

>  <r_i_glide_rewards>  (82) 
-2.89700413604585

>  <r_i_glide_evdw>  (82) 
-21.4058952331543

>  <r_i_glide_ecoul>  (82) 
-7.67287588119507

>  <r_i_glide_erotb>  (82) 
0.425858849216315

>  <r_i_glide_esite>  (82) 
-0.140926587864313

>  <r_i_glide_emodel>  (82) 
-44.1669214570201

>  <r_i_glide_energy>  (82) 
-29.0787711143494

>  <r_i_glide_einternal>  (82) 
2.35756468772888

>  <i_i_glide_confnum>  (82) 
31

>  <i_i_glide_posenum>  (82) 
106

>  <r_i_glide_eff_state_penalty>  (82) 
0

>  <r_lp_tautomer_probability>  (82) 
1

>  <s_m_subgroup_title>  (82) 
0995dock_pv

>  <s_m_subgroupid>  (82) 
0995dock_pv

>  <b_m_subgroup_collapsed>  (82) 
0

>  <class>  (82) 
3

>  <isCentroid>  (82) 
flase

$$$$
ZINC000095411026
     RDKit          3D

 15 15  0  0  1  0  0  0  0  0999 V2000
    1.2341    8.9144  -24.9333 C   0  0  0  0  0  0  0  0  0  0  0  0
    1.2509    9.4684  -23.4983 C   0  0  0  0  0  0  0  0  0  0  0  0
    2.1113    8.6904  -22.4731 C   0  0  1  0  0  0  0  0  0  0  0  0
    1.8000    7.1942  -22.4472 C   0  0  0  0  0  0  0  0  0  0  0  0
    2.3106    6.3135  -23.4310 C   0  0  0  0  0  0  0  0  0  0  0  0
    1.9652    4.9490  -23.4170 C   0  0  0  0  0  0  0  0  0  0  0  0
    1.1224    4.4460  -22.4092 C   0  0  0  0  0  0  0  0  0  0  0  0
    0.6228    5.3106  -21.4167 C   0  0  0  0  0  0  0  0  0  0  0  0
    0.9579    6.6790  -21.4375 C   0  0  0  0  0  0  0  0  0  0  0  0
    3.9233    8.9745  -22.8077 S   0  0  0  0  0  0  0  0  0  0  0  0
    4.7228    8.1233  -21.8168 O   0  0  0  0  0  0  0  0  0  0  0  0
    4.1186   10.7454  -22.2909 C   0  0  0  0  0  0  0  0  0  0  0  0
    5.5619   11.2059  -22.4995 C   0  0  0  0  0  0  0  0  0  0  0  0
    6.2907   11.4717  -21.4171 N   0  0  0  0  0  0  0  0  0  0  0  0
    6.0386   11.3143  -23.6288 O   0  0  0  0  0  0  0  0  0  0  0  0
  1  2  1  0
  3  2  1  6
  3  4  1  0
  3 10  1  0
  4  5  2  0
  4  9  1  0
  5  6  1  0
  6  7  2  0
  7  8  1  0
  8  9  2  0
 10 11  2  0
 10 12  1  0
 12 13  1  0
 13 14  1  0
 13 15  2  0
M  END
>  <s_m_entry_id>  (83) 
77

>  <s_m_entry_name>  (83) 
ZINC000095411026.1

>  <s_m_Source_Path>  (83) 
/home/bhw/schrodinger/schrodinger/0995dock

>  <s_m_Source_File>  (83) 
0995dock_pv.maegz

>  <i_m_Source_File_Index>  (83) 
77

>  <zinc_id>  (83) 
ZINC000095411026

>  <smiles>  (83) 
CC[C@@H](c1ccccc1)[S@@](=O)CC(N)=O

>  <chiral flag>  (83) 
0

>  <version>  (83) 
0

>  <i_lp_mmshare_version>  (83) 
44012

>  <s_epik_input>  (83) 
W05IMl1DKD1PKVtDSDJdW1NAXSg9TylbQ0BASF0oW0NIMl1bQ0gzXSljMVtjSF1bY0hdW2NIXVtjSF1bY0hdMQ==

>  <s_epik_cmdline>  (83) 
J2VwaWtfcHl0aG9uJywgJy1waCcsICc3LjAnLCAnLXRuJywgJzgnLCAnLW1hJywgJzIwMCcsICctaW1hZScsICc8aW5maWxlLm1hZT4nLCAnLW9tYWUnLCAnPG91dGZpbGUubWFlPic=

>  <r_epik_Ionization_Penalty>  (83) 
0.0000

>  <r_epik_Ionization_Penalty_Charging>  (83) 
0.0000

>  <r_epik_Ionization_Penalty_Neutral>  (83) 
0.0000

>  <r_epik_State_Penalty>  (83) 
0.0000

>  <r_epik_Charging_Adjusted_Penalty>  (83) 
0

>  <i_epik_Tot_Q>  (83) 
0

>  <i_epik_Tot_abs_Q>  (83) 
0

>  <i_f3d_flags>  (83) 
0

>  <s_lp_Force_Field>  (83) 
OPLS_2005

>  <r_lp_Energy>  (83) 
4.929545

>  <b_lp_Chiralities_Consistent>  (83) 
1

>  <s_lp_Variant>  (83) 
ZINC000095411026-2

>  <s_m_job_name>  (83) 
zinc0995

>  <s_i_glide_gridfile>  (83) 
zincglide

>  <i_i_glide_lignum>  (83) 
25350

>  <i_i_glide_rotatable_bonds>  (83) 
5

>  <r_i_docking_score>  (83) 
-6.01635860908816

>  <r_i_glide_ligand_efficiency>  (83) 
-0.401090573939211

>  <r_i_glide_ligand_efficiency_sa>  (83) 
-0.989174415456109

>  <r_i_glide_ligand_efficiency_ln>  (83) 
-1.62251271768106

>  <r_i_glide_gscore>  (83) 
-6.01635860908816

>  <r_i_glide_lipo>  (83) 
-0.840399722305319

>  <r_i_glide_hbond>  (83) 
-0.743284212417165

>  <r_i_glide_metal>  (83) 
0

>  <r_i_glide_rewards>  (83) 
-1.87289795454546

>  <r_i_glide_evdw>  (83) 
-24.9965591430664

>  <r_i_glide_ecoul>  (83) 
-12.3161334991455

>  <r_i_glide_erotb>  (83) 
0.668534378456976

>  <r_i_glide_esite>  (83) 
-0.131063116252054

>  <r_i_glide_emodel>  (83) 
-50.9673038878845

>  <r_i_glide_energy>  (83) 
-37.3126926422119

>  <r_i_glide_einternal>  (83) 
1.43200016021729

>  <i_i_glide_confnum>  (83) 
1

>  <i_i_glide_posenum>  (83) 
350

>  <r_i_glide_eff_state_penalty>  (83) 
0

>  <r_lp_tautomer_probability>  (83) 
1

>  <s_m_subgroup_title>  (83) 
0995dock_pv

>  <s_m_subgroupid>  (83) 
0995dock_pv

>  <b_m_subgroup_collapsed>  (83) 
0

>  <class>  (83) 
6

>  <isCentroid>  (83) 
true

$$$$
ZINC000095411027
     RDKit          3D

 15 15  0  0  1  0  0  0  0  0999 V2000
    0.7322    9.0639  -25.0239 C   0  0  0  0  0  0  0  0  0  0  0  0
    1.4147    9.4022  -23.6895 C   0  0  0  0  0  0  0  0  0  0  0  0
    2.4221    8.3243  -23.2313 C   0  0  2  0  0  0  0  0  0  0  0  0
    1.8009    6.9363  -23.0910 C   0  0  0  0  0  0  0  0  0  0  0  0
    0.6076    6.7550  -22.3532 C   0  0  0  0  0  0  0  0  0  0  0  0
    0.0713    5.4673  -22.1612 C   0  0  0  0  0  0  0  0  0  0  0  0
    0.7327    4.3446  -22.6901 C   0  0  0  0  0  0  0  0  0  0  0  0
    1.9232    4.5163  -23.4187 C   0  0  0  0  0  0  0  0  0  0  0  0
    2.4466    5.8062  -23.6362 C   0  0  0  0  0  0  0  0  0  0  0  0
    3.1231    8.7211  -21.5514 S   0  0  0  0  0  0  0  0  0  0  0  0
    4.3709    7.8465  -21.4172 O   0  0  0  0  0  0  0  0  0  0  0  0
    3.6875   10.4943  -21.6381 C   0  0  0  0  0  0  0  0  0  0  0  0
    5.0821   10.6798  -22.2404 C   0  0  0  0  0  0  0  0  0  0  0  0
    6.0657   11.0493  -21.4171 N   0  0  0  0  0  0  0  0  0  0  0  0
    5.2833   10.5141  -23.4401 O   0  0  0  0  0  0  0  0  0  0  0  0
  1  2  1  0
  3  2  1  1
  3  4  1  0
  3 10  1  0
  4  5  2  0
  4  9  1  0
  5  6  1  0
  6  7  2  0
  7  8  1  0
  8  9  2  0
 10 11  2  0
 10 12  1  0
 12 13  1  0
 13 14  1  0
 13 15  2  0
M  END
>  <s_m_entry_id>  (84) 
70

>  <s_m_entry_name>  (84) 
ZINC000095411027.1

>  <s_m_Source_Path>  (84) 
/home/bhw/schrodinger/schrodinger/0995dock

>  <s_m_Source_File>  (84) 
0995dock_pv.maegz

>  <i_m_Source_File_Index>  (84) 
70

>  <zinc_id>  (84) 
ZINC000095411027

>  <smiles>  (84) 
CC[C@H](c1ccccc1)[S@@](=O)CC(N)=O

>  <chiral flag>  (84) 
0

>  <version>  (84) 
0

>  <i_lp_mmshare_version>  (84) 
44012

>  <s_epik_input>  (84) 
W05IMl1DKD1PKVtDSDJdW1NAXSg9TylbQ0BIXShbQ0gyXVtDSDNdKWMxW2NIXVtjSF1bY0hdW2NIXVtjSF0x

>  <s_epik_cmdline>  (84) 
J2VwaWtfcHl0aG9uJywgJy1waCcsICc3LjAnLCAnLXRuJywgJzgnLCAnLW1hJywgJzIwMCcsICctaW1hZScsICc8aW5maWxlLm1hZT4nLCAnLW9tYWUnLCAnPG91dGZpbGUubWFlPic=

>  <r_epik_Ionization_Penalty>  (84) 
0.0000

>  <r_epik_Ionization_Penalty_Charging>  (84) 
0.0000

>  <r_epik_Ionization_Penalty_Neutral>  (84) 
0.0000

>  <r_epik_State_Penalty>  (84) 
0.0000

>  <r_epik_Charging_Adjusted_Penalty>  (84) 
0

>  <i_epik_Tot_Q>  (84) 
0

>  <i_epik_Tot_abs_Q>  (84) 
0

>  <i_f3d_flags>  (84) 
0

>  <s_lp_Force_Field>  (84) 
OPLS_2005

>  <r_lp_Energy>  (84) 
4.215629

>  <b_lp_Chiralities_Consistent>  (84) 
1

>  <s_lp_Variant>  (84) 
ZINC000095411027-1

>  <s_m_job_name>  (84) 
zinc0995

>  <s_i_glide_gridfile>  (84) 
zincglide

>  <i_i_glide_lignum>  (84) 
25351

>  <i_i_glide_rotatable_bonds>  (84) 
5

>  <r_i_docking_score>  (84) 
-6.04035776236075

>  <r_i_glide_ligand_efficiency>  (84) 
-0.402690517490717

>  <r_i_glide_ligand_efficiency_sa>  (84) 
-0.993120215557518

>  <r_i_glide_ligand_efficiency_ln>  (84) 
-1.62898489361478

>  <r_i_glide_gscore>  (84) 
-6.04035776236075

>  <r_i_glide_lipo>  (84) 
-0.881427457493799

>  <r_i_glide_hbond>  (84) 
-0.622505159578313

>  <r_i_glide_metal>  (84) 
0

>  <r_i_glide_rewards>  (84) 
-1.97876433140858

>  <r_i_glide_evdw>  (84) 
-22.9621105194092

>  <r_i_glide_ecoul>  (84) 
-13.1872644424438

>  <r_i_glide_erotb>  (84) 
0.668534378456976

>  <r_i_glide_esite>  (84) 
-0.1

>  <r_i_glide_emodel>  (84) 
-49.2007648489226

>  <r_i_glide_energy>  (84) 
-36.149374961853

>  <r_i_glide_einternal>  (84) 
3.16496562957764

>  <i_i_glide_confnum>  (84) 
4

>  <i_i_glide_posenum>  (84) 
10

>  <r_i_glide_eff_state_penalty>  (84) 
0

>  <r_lp_tautomer_probability>  (84) 
1

>  <s_m_subgroup_title>  (84) 
0995dock_pv

>  <s_m_subgroupid>  (84) 
0995dock_pv

>  <b_m_subgroup_collapsed>  (84) 
0

>  <class>  (84) 
6

>  <isCentroid>  (84) 
flase

$$$$
ZINC000095411028
     RDKit          3D

 15 15  0  0  1  0  0  0  0  0999 V2000
    1.2341    8.9144  -24.9333 C   0  0  0  0  0  0  0  0  0  0  0  0
    1.2509    9.4684  -23.4983 C   0  0  0  0  0  0  0  0  0  0  0  0
    2.1113    8.6904  -22.4731 C   0  0  1  0  0  0  0  0  0  0  0  0
    1.8000    7.1942  -22.4472 C   0  0  0  0  0  0  0  0  0  0  0  0
    2.3106    6.3135  -23.4310 C   0  0  0  0  0  0  0  0  0  0  0  0
    1.9652    4.9490  -23.4170 C   0  0  0  0  0  0  0  0  0  0  0  0
    1.1224    4.4460  -22.4092 C   0  0  0  0  0  0  0  0  0  0  0  0
    0.6228    5.3106  -21.4167 C   0  0  0  0  0  0  0  0  0  0  0  0
    0.9579    6.6790  -21.4375 C   0  0  0  0  0  0  0  0  0  0  0  0
    3.9233    8.9745  -22.8077 S   0  0  0  0  0  0  0  0  0  0  0  0
    4.7228    8.1233  -21.8168 O   0  0  0  0  0  0  0  0  0  0  0  0
    4.1186   10.7454  -22.2909 C   0  0  0  0  0  0  0  0  0  0  0  0
    5.5619   11.2059  -22.4995 C   0  0  0  0  0  0  0  0  0  0  0  0
    6.2907   11.4717  -21.4171 N   0  0  0  0  0  0  0  0  0  0  0  0
    6.0386   11.3143  -23.6288 O   0  0  0  0  0  0  0  0  0  0  0  0
  1  2  1  0
  3  2  1  6
  3  4  1  0
  3 10  1  0
  4  5  2  0
  4  9  1  0
  5  6  1  0
  6  7  2  0
  7  8  1  0
  8  9  2  0
 10 11  2  0
 10 12  1  0
 12 13  1  0
 13 14  1  0
 13 15  2  0
M  END
>  <s_m_entry_id>  (85) 
78

>  <s_m_entry_name>  (85) 
ZINC000095411028.1

>  <s_m_Source_Path>  (85) 
/home/bhw/schrodinger/schrodinger/0995dock

>  <s_m_Source_File>  (85) 
0995dock_pv.maegz

>  <i_m_Source_File_Index>  (85) 
78

>  <zinc_id>  (85) 
ZINC000095411028

>  <smiles>  (85) 
CC[C@@H](c1ccccc1)[S@](=O)CC(N)=O

>  <chiral flag>  (85) 
0

>  <version>  (85) 
0

>  <i_lp_mmshare_version>  (85) 
44012

>  <s_epik_input>  (85) 
W05IMl1DKD1PKVtDSDJdW1NAQF0oPU8pW0NAQEhdKFtDSDJdW0NIM10pYzFbY0hdW2NIXVtjSF1bY0hdW2NIXTE=

>  <s_epik_cmdline>  (85) 
J2VwaWtfcHl0aG9uJywgJy1waCcsICc3LjAnLCAnLXRuJywgJzgnLCAnLW1hJywgJzIwMCcsICctaW1hZScsICc8aW5maWxlLm1hZT4nLCAnLW9tYWUnLCAnPG91dGZpbGUubWFlPic=

>  <r_epik_Ionization_Penalty>  (85) 
0.0000

>  <r_epik_Ionization_Penalty_Charging>  (85) 
0.0000

>  <r_epik_Ionization_Penalty_Neutral>  (85) 
0.0000

>  <r_epik_State_Penalty>  (85) 
0.0000

>  <r_epik_Charging_Adjusted_Penalty>  (85) 
0

>  <i_epik_Tot_Q>  (85) 
0

>  <i_epik_Tot_abs_Q>  (85) 
0

>  <i_f3d_flags>  (85) 
0

>  <s_lp_Force_Field>  (85) 
OPLS_2005

>  <r_lp_Energy>  (85) 
4.929545

>  <b_lp_Chiralities_Consistent>  (85) 
1

>  <s_lp_Variant>  (85) 
ZINC000095411028-1

>  <s_m_job_name>  (85) 
zinc0995

>  <s_i_glide_gridfile>  (85) 
zincglide

>  <i_i_glide_lignum>  (85) 
25353

>  <i_i_glide_rotatable_bonds>  (85) 
5

>  <r_i_docking_score>  (85) 
-6.01635860908816

>  <r_i_glide_ligand_efficiency>  (85) 
-0.401090573939211

>  <r_i_glide_ligand_efficiency_sa>  (85) 
-0.989174415456109

>  <r_i_glide_ligand_efficiency_ln>  (85) 
-1.62251271768106

>  <r_i_glide_gscore>  (85) 
-6.01635860908816

>  <r_i_glide_lipo>  (85) 
-0.840399722305319

>  <r_i_glide_hbond>  (85) 
-0.743284212417165

>  <r_i_glide_metal>  (85) 
0

>  <r_i_glide_rewards>  (85) 
-1.87289795454546

>  <r_i_glide_evdw>  (85) 
-24.9965591430664

>  <r_i_glide_ecoul>  (85) 
-12.3161334991455

>  <r_i_glide_erotb>  (85) 
0.668534378456976

>  <r_i_glide_esite>  (85) 
-0.131063116252054

>  <r_i_glide_emodel>  (85) 
-50.9673038878845

>  <r_i_glide_energy>  (85) 
-37.3126926422119

>  <r_i_glide_einternal>  (85) 
1.43200016021729

>  <i_i_glide_confnum>  (85) 
1

>  <i_i_glide_posenum>  (85) 
350

>  <r_i_glide_eff_state_penalty>  (85) 
0

>  <r_lp_tautomer_probability>  (85) 
1

>  <s_m_subgroup_title>  (85) 
0995dock_pv

>  <s_m_subgroupid>  (85) 
0995dock_pv

>  <b_m_subgroup_collapsed>  (85) 
0

>  <class>  (85) 
6

>  <isCentroid>  (85) 
flase

$$$$
ZINC000095411029
     RDKit          3D

 15 15  0  0  1  0  0  0  0  0999 V2000
    0.7322    9.0639  -25.0239 C   0  0  0  0  0  0  0  0  0  0  0  0
    1.4147    9.4022  -23.6895 C   0  0  0  0  0  0  0  0  0  0  0  0
    2.4221    8.3243  -23.2313 C   0  0  2  0  0  0  0  0  0  0  0  0
    1.8009    6.9363  -23.0910 C   0  0  0  0  0  0  0  0  0  0  0  0
    0.6076    6.7550  -22.3532 C   0  0  0  0  0  0  0  0  0  0  0  0
    0.0713    5.4673  -22.1612 C   0  0  0  0  0  0  0  0  0  0  0  0
    0.7327    4.3446  -22.6901 C   0  0  0  0  0  0  0  0  0  0  0  0
    1.9232    4.5163  -23.4187 C   0  0  0  0  0  0  0  0  0  0  0  0
    2.4466    5.8062  -23.6362 C   0  0  0  0  0  0  0  0  0  0  0  0
    3.1231    8.7211  -21.5514 S   0  0  0  0  0  0  0  0  0  0  0  0
    4.3709    7.8465  -21.4172 O   0  0  0  0  0  0  0  0  0  0  0  0
    3.6875   10.4943  -21.6381 C   0  0  0  0  0  0  0  0  0  0  0  0
    5.0821   10.6798  -22.2404 C   0  0  0  0  0  0  0  0  0  0  0  0
    6.0657   11.0493  -21.4171 N   0  0  0  0  0  0  0  0  0  0  0  0
    5.2833   10.5141  -23.4401 O   0  0  0  0  0  0  0  0  0  0  0  0
  1  2  1  0
  3  2  1  1
  3  4  1  0
  3 10  1  0
  4  5  2  0
  4  9  1  0
  5  6  1  0
  6  7  2  0
  7  8  1  0
  8  9  2  0
 10 11  2  0
 10 12  1  0
 12 13  1  0
 13 14  1  0
 13 15  2  0
M  END
>  <s_m_entry_id>  (86) 
71

>  <s_m_entry_name>  (86) 
ZINC000095411029.1

>  <s_m_Source_Path>  (86) 
/home/bhw/schrodinger/schrodinger/0995dock

>  <s_m_Source_File>  (86) 
0995dock_pv.maegz

>  <i_m_Source_File_Index>  (86) 
71

>  <zinc_id>  (86) 
ZINC000095411029

>  <smiles>  (86) 
CC[C@H](c1ccccc1)[S@](=O)CC(N)=O

>  <chiral flag>  (86) 
0

>  <version>  (86) 
0

>  <i_lp_mmshare_version>  (86) 
44012

>  <s_epik_input>  (86) 
W05IMl1DKD1PKVtDSDJdW1NAQF0oPU8pW0NASF0oW0NIMl1bQ0gzXSljMVtjSF1bY0hdW2NIXVtjSF1bY0hdMQ==

>  <s_epik_cmdline>  (86) 
J2VwaWtfcHl0aG9uJywgJy1waCcsICc3LjAnLCAnLXRuJywgJzgnLCAnLW1hJywgJzIwMCcsICctaW1hZScsICc8aW5maWxlLm1hZT4nLCAnLW9tYWUnLCAnPG91dGZpbGUubWFlPic=

>  <r_epik_Ionization_Penalty>  (86) 
0.0000

>  <r_epik_Ionization_Penalty_Charging>  (86) 
0.0000

>  <r_epik_Ionization_Penalty_Neutral>  (86) 
0.0000

>  <r_epik_State_Penalty>  (86) 
0.0000

>  <r_epik_Charging_Adjusted_Penalty>  (86) 
0

>  <i_epik_Tot_Q>  (86) 
0

>  <i_epik_Tot_abs_Q>  (86) 
0

>  <i_f3d_flags>  (86) 
0

>  <s_lp_Force_Field>  (86) 
OPLS_2005

>  <r_lp_Energy>  (86) 
4.215629

>  <b_lp_Chiralities_Consistent>  (86) 
1

>  <s_lp_Variant>  (86) 
ZINC000095411029-2

>  <s_m_job_name>  (86) 
zinc0995

>  <s_i_glide_gridfile>  (86) 
zincglide

>  <i_i_glide_lignum>  (86) 
25356

>  <i_i_glide_rotatable_bonds>  (86) 
5

>  <r_i_docking_score>  (86) 
-6.04035776236075

>  <r_i_glide_ligand_efficiency>  (86) 
-0.402690517490717

>  <r_i_glide_ligand_efficiency_sa>  (86) 
-0.993120215557518

>  <r_i_glide_ligand_efficiency_ln>  (86) 
-1.62898489361478

>  <r_i_glide_gscore>  (86) 
-6.04035776236075

>  <r_i_glide_lipo>  (86) 
-0.881427457493799

>  <r_i_glide_hbond>  (86) 
-0.622505159578313

>  <r_i_glide_metal>  (86) 
0

>  <r_i_glide_rewards>  (86) 
-1.97876433140858

>  <r_i_glide_evdw>  (86) 
-22.9621105194092

>  <r_i_glide_ecoul>  (86) 
-13.1872644424438

>  <r_i_glide_erotb>  (86) 
0.668534378456976

>  <r_i_glide_esite>  (86) 
-0.1

>  <r_i_glide_emodel>  (86) 
-49.2007648489226

>  <r_i_glide_energy>  (86) 
-36.149374961853

>  <r_i_glide_einternal>  (86) 
3.16496562957764

>  <i_i_glide_confnum>  (86) 
4

>  <i_i_glide_posenum>  (86) 
10

>  <r_i_glide_eff_state_penalty>  (86) 
0

>  <r_lp_tautomer_probability>  (86) 
1

>  <s_m_subgroup_title>  (86) 
0995dock_pv

>  <s_m_subgroupid>  (86) 
0995dock_pv

>  <b_m_subgroup_collapsed>  (86) 
0

>  <class>  (86) 
6

>  <isCentroid>  (86) 
flase

$$$$
ZINC000095415905
     RDKit          3D

 22 23  0  0  1  0  0  0  0  0999 V2000
    4.6461   12.4790  -22.2710 C   0  0  0  0  0  0  0  0  0  0  0  0
    5.5483   11.0380  -22.9394 S   0  0  0  0  0  0  0  0  0  0  0  0
    6.3235   11.5406  -24.0847 O   0  0  0  0  0  0  0  0  0  0  0  0
    6.3237   10.5130  -21.8170 O   0  0  0  0  0  0  0  0  0  0  0  0
    4.3242   10.0899  -23.3849 N   0  0  0  0  0  0  0  0  0  0  0  0
    3.9232    9.0002  -22.6905 C   0  0  0  0  0  0  0  0  0  0  0  0
    4.5311    8.3827  -21.8169 O   0  0  0  0  0  0  0  0  0  0  0  0
    2.5513    8.5135  -23.0668 C   0  0  0  0  0  0  0  0  0  0  0  0
    1.5150    9.4118  -23.4173 C   0  0  0  0  0  0  0  0  0  0  0  0
    0.2153    8.9369  -23.6724 C   0  0  0  0  0  0  0  0  0  0  0  0
   -0.0693    7.5631  -23.5598 C   0  0  0  0  0  0  0  0  0  0  0  0
    0.9532    6.6517  -23.2136 C   0  0  0  0  0  0  0  0  0  0  0  0
    0.6810    5.2683  -23.0783 N   0  0  0  0  0  0  0  0  0  0  0  0
    1.5286    4.2053  -23.3122 C   0  0  0  0  0  0  0  0  0  0  0  0
    0.8510    3.0594  -23.0172 C   0  0  0  0  0  0  0  0  0  0  0  0
   -0.4391    3.5114  -22.6221 C   0  0  0  0  0  0  0  0  0  0  0  0
   -1.6256    2.6859  -22.1924 C   0  0  0  0  0  0  0  0  0  0  0  0
   -1.9756    2.9990  -20.9436 F   0  0  0  0  0  0  0  0  0  0  0  0
   -2.6596    2.9124  -23.0043 F   0  0  0  0  0  0  0  0  0  0  0  0
   -1.3236    1.3867  -22.2392 F   0  0  0  0  0  0  0  0  0  0  0  0
   -0.5335    4.8342  -22.6704 N   0  0  0  0  0  0  0  0  0  0  0  0
    2.2586    7.1340  -22.9785 C   0  0  0  0  0  0  0  0  0  0  0  0
  1  2  1  0
  2  3  2  0
  2  4  2  0
  2  5  1  0
  5  6  1  0
  6  7  2  0
  6  8  1  0
  8  9  2  0
  8 22  1  0
  9 10  1  0
 10 11  2  0
 11 12  1  0
 12 13  1  0
 12 22  2  0
 13 14  1  0
 13 21  1  0
 14 15  2  0
 15 16  1  0
 16 17  1  0
 16 21  2  0
 17 18  1  0
 17 19  1  0
 17 20  1  0
M  CHG  1   5  -1
M  END
>  <s_m_entry_id>  (87) 
75

>  <s_m_entry_name>  (87) 
ZINC000095415905.1

>  <s_m_Source_Path>  (87) 
/home/bhw/schrodinger/schrodinger/0995dock

>  <s_m_Source_File>  (87) 
0995dock_pv.maegz

>  <i_m_Source_File_Index>  (87) 
75

>  <zinc_id>  (87) 
ZINC000095415905

>  <smiles>  (87) 
CS(=O)(=O)/N=C(\O)c1cccc(-n2ccc(C(F)(F)F)n2)c1

>  <chiral flag>  (87) 
0

>  <version>  (87) 
0

>  <i_lp_mmshare_version>  (87) 
44012

>  <s_epik_input>  (87) 
W0NIM11TKD1PKSg9TykvTj1DKFxbT0hdKWMxW2NIXVtjSF1bY0hdYyhbY0hdMSktbjJbY0hdW2NIXWMobjIpQyhGKShGKUY=

>  <s_epik_cmdline>  (87) 
J2VwaWtfcHl0aG9uJywgJy1waCcsICc3LjAnLCAnLXRuJywgJzgnLCAnLW1hJywgJzIwMCcsICctaW1hZScsICc8aW5maWxlLm1hZT4nLCAnLW9tYWUnLCAnPG91dGZpbGUubWFlPic=

>  <r_epik_Ionization_Penalty>  (87) 
0.0041

>  <r_epik_Ionization_Penalty_Charging>  (87) 
0.0041

>  <r_epik_Ionization_Penalty_Neutral>  (87) 
0.0000

>  <r_epik_State_Penalty>  (87) 
0.0030

>  <r_epik_Charging_Adjusted_Penalty>  (87) 
0.00709749530478581

>  <i_epik_Tot_Q>  (87) 
-1

>  <i_epik_Tot_abs_Q>  (87) 
1

>  <i_f3d_flags>  (87) 
0

>  <s_lp_Force_Field>  (87) 
OPLS_2005

>  <r_lp_Energy>  (87) 
9.907402

>  <b_lp_Chiralities_Consistent>  (87) 
1

>  <s_lp_Variant>  (87) 
ZINC000095415905-1

>  <s_m_job_name>  (87) 
zinc0995

>  <s_i_glide_gridfile>  (87) 
zincglide

>  <i_i_glide_lignum>  (87) 
25362

>  <i_i_glide_rotatable_bonds>  (87) 
5

>  <r_i_docking_score>  (87) 
-6.02494417796759

>  <r_i_glide_ligand_efficiency>  (87) 
-0.273861098998527

>  <r_i_glide_ligand_efficiency_sa>  (87) 
-0.767369569739724

>  <r_i_glide_ligand_efficiency_ln>  (87) 
-1.47271612227386

>  <r_i_glide_gscore>  (87) 
-6.02794417796759

>  <r_i_glide_lipo>  (87) 
-0.968344112903254

>  <r_i_glide_hbond>  (87) 
-0.182764077376544

>  <r_i_glide_metal>  (87) 
0

>  <r_i_glide_rewards>  (87) 
-1.83859289933763

>  <r_i_glide_evdw>  (87) 
-29.0616359710693

>  <r_i_glide_ecoul>  (87) 
-13.3625249862671

>  <r_i_glide_erotb>  (87) 
0.511704755594029

>  <r_i_glide_esite>  (87) 
-0.092487297450666

>  <r_i_glide_emodel>  (87) 
-59.1993307550614

>  <r_i_glide_energy>  (87) 
-42.4241609573364

>  <r_i_glide_einternal>  (87) 
3.68779420852661

>  <i_i_glide_confnum>  (87) 
1

>  <i_i_glide_posenum>  (87) 
317

>  <r_i_glide_eff_state_penalty>  (87) 
0.003

>  <r_lp_tautomer_probability>  (87) 
1

>  <s_m_subgroup_title>  (87) 
0995dock_pv

>  <s_m_subgroupid>  (87) 
0995dock_pv

>  <b_m_subgroup_collapsed>  (87) 
0

>  <class>  (87) 
9

>  <isCentroid>  (87) 
flase

$$$$
ZINC000096223918
     RDKit          3D

 23 25  0  0  1  0  0  0  0  0999 V2000
    4.6930    8.2247  -21.8170 O   0  0  0  0  0  0  0  0  0  0  0  0
    4.6710    9.4056  -22.1586 C   0  0  0  0  0  0  0  0  0  0  0  0
    3.3178   10.0963  -22.4774 C   0  0  0  0  0  0  0  0  0  0  0  0
    2.0480    9.2105  -22.5861 C   0  0  2  0  0  0  0  0  0  0  0  0
    1.7140    8.5207  -21.3563 N   0  0  0  0  0  0  0  0  0  0  0  0
    1.6479    7.1953  -21.5187 C   0  0  0  0  0  0  0  0  0  0  0  0
    1.4280    6.3930  -20.6133 O   0  0  0  0  0  0  0  0  0  0  0  0
    1.8737    6.9056  -22.8171 N   0  0  0  0  0  0  0  0  0  0  0  0
    1.8884    5.5494  -23.3883 C   0  0  0  0  0  0  0  0  0  0  0  0
    0.6516    4.7032  -23.1019 C   0  0  0  0  0  0  0  0  0  0  0  0
    0.7969    3.3127  -22.9164 C   0  0  0  0  0  0  0  0  0  0  0  0
   -0.3228    2.5135  -22.6170 C   0  0  0  0  0  0  0  0  0  0  0  0
   -1.5993    3.0975  -22.5134 C   0  0  0  0  0  0  0  0  0  0  0  0
   -1.7553    4.4825  -22.7123 C   0  0  0  0  0  0  0  0  0  0  0  0
   -0.6356    5.2813  -23.0150 C   0  0  0  0  0  0  0  0  0  0  0  0
    2.1595    8.0133  -23.5158 C   0  0  0  0  0  0  0  0  0  0  0  0
    2.4903    8.0876  -24.6995 O   0  0  0  0  0  0  0  0  0  0  0  0
    5.7720   10.1950  -22.2614 N   0  0  0  0  0  0  0  0  0  0  0  0
    5.6911   11.5322  -22.2113 C   0  0  0  0  0  0  0  0  0  0  0  0
    5.8132   12.1137  -21.0170 N   0  0  0  0  0  0  0  0  0  0  0  0
    5.6936   13.4128  -21.3134 C   0  0  0  0  0  0  0  0  0  0  0  0
    5.5237   13.6515  -22.6166 N   0  0  0  0  0  0  0  0  0  0  0  0
    5.5237   12.3992  -23.2113 N   0  0  0  0  0  0  0  0  0  0  0  0
  1  2  2  0
  2  3  1  0
  2 18  1  0
  4  3  1  1
  4  5  1  0
  4 16  1  0
  5  6  1  0
  6  7  2  0
  6  8  1  0
  8  9  1  0
  8 16  1  0
  9 10  1  0
 10 11  2  0
 10 15  1  0
 11 12  1  0
 12 13  2  0
 13 14  1  0
 14 15  2  0
 16 17  2  0
 18 19  1  0
 19 23  2  0
 19 20  1  0
 20 21  1  0
 21 22  2  0
 22 23  1  0
M  CHG  1  18  -1
M  END
>  <s_m_entry_id>  (88) 
56

>  <s_m_entry_name>  (88) 
ZINC000096223918.1

>  <s_m_Source_Path>  (88) 
/home/bhw/schrodinger/schrodinger/0995dock

>  <s_m_Source_File>  (88) 
0995dock_pv.maegz

>  <i_m_Source_File_Index>  (88) 
56

>  <zinc_id>  (88) 
ZINC000096223918

>  <smiles>  (88) 
O=C(C[C@@H]1NC(=O)N(Cc2ccccc2)C1=O)/N=c1\[nH]cn[nH]1

>  <chiral flag>  (88) 
0

>  <version>  (88) 
0

>  <i_lp_mmshare_version>  (88) 
44012

>  <s_epik_input>  (88) 
W25IXTFuW2NIXVtuSF0vYzE9TlxDKD1PKVtDSDJdW0NAQEhdMltOSF1DKD1PKU4oQzI9TylbQ0gyXWMzW2NIXVtjSF1bY0hdW2NIXVtjSF0z

>  <s_epik_cmdline>  (88) 
J2VwaWtfcHl0aG9uJywgJy1waCcsICc3LjAnLCAnLXRuJywgJzgnLCAnLW1hJywgJzIwMCcsICctaW1hZScsICc8aW5maWxlLm1hZT4nLCAnLW9tYWUnLCAnPG91dGZpbGUubWFlPic=

>  <r_epik_Ionization_Penalty>  (88) 
1.4027

>  <r_epik_Ionization_Penalty_Charging>  (88) 
1.3890

>  <r_epik_Ionization_Penalty_Neutral>  (88) 
0.0138

>  <r_epik_State_Penalty>  (88) 
1.0066

>  <r_epik_Charging_Adjusted_Penalty>  (88) 
2.39559098378355

>  <i_epik_Tot_Q>  (88) 
-1

>  <i_epik_Tot_abs_Q>  (88) 
1

>  <i_f3d_flags>  (88) 
0

>  <s_lp_Force_Field>  (88) 
OPLS_2005

>  <r_lp_Energy>  (88) 
16.078867

>  <b_lp_Chiralities_Consistent>  (88) 
1

>  <s_lp_Variant>  (88) 
ZINC000096223918-3

>  <s_m_job_name>  (88) 
zinc0995

>  <s_i_glide_gridfile>  (88) 
zincglide

>  <i_i_glide_lignum>  (88) 
25846

>  <i_i_glide_rotatable_bonds>  (88) 
6

>  <r_i_docking_score>  (88) 
-6.11780128625508

>  <r_i_glide_ligand_efficiency>  (88) 
-0.26599136027196

>  <r_i_glide_ligand_efficiency_sa>  (88) 
-0.75644404561262

>  <r_i_glide_ligand_efficiency_ln>  (88) 
-1.47933982417155

>  <r_i_glide_gscore>  (88) 
-7.12440128625508

>  <r_i_glide_lipo>  (88) 
-1.12880251725084

>  <r_i_glide_hbond>  (88) 
-0.708595812813682

>  <r_i_glide_metal>  (88) 
0

>  <r_i_glide_rewards>  (88) 
-1.72013691200152

>  <r_i_glide_evdw>  (88) 
-29.668041229248

>  <r_i_glide_ecoul>  (88) 
-17.8596839904785

>  <r_i_glide_erotb>  (88) 
0.946087268402936

>  <r_i_glide_esite>  (88) 
-0.350598652557783

>  <r_i_glide_emodel>  (88) 
-67.2035526211668

>  <r_i_glide_energy>  (88) 
-47.5277252197266

>  <r_i_glide_einternal>  (88) 
9.57810401916504

>  <i_i_glide_confnum>  (88) 
19

>  <i_i_glide_posenum>  (88) 
325

>  <r_i_glide_eff_state_penalty>  (88) 
1.0066

>  <r_lp_tautomer_probability>  (88) 
0.999999999999794

>  <s_m_subgroup_title>  (88) 
0995dock_pv

>  <s_m_subgroupid>  (88) 
0995dock_pv

>  <b_m_subgroup_collapsed>  (88) 
0

>  <class>  (88) 
2

>  <isCentroid>  (88) 
flase

$$$$
ZINC000096256301
     RDKit          3D

 19 20  0  0  1  0  0  0  0  0999 V2000
    4.3226    7.9179  -21.8169 O   0  0  0  0  0  0  0  0  0  0  0  0
    4.3243    9.0786  -22.2170 C   0  0  0  0  0  0  0  0  0  0  0  0
    3.0841    9.7069  -22.6835 C   0  0  0  0  0  0  0  0  0  0  0  0
    1.9621    9.0439  -23.0489 C   0  0  0  0  0  0  0  0  0  0  0  0
    1.7295    7.5932  -23.1544 C   0  0  0  0  0  0  0  0  0  0  0  0
    2.5440    6.7034  -23.9160 C   0  0  0  0  0  0  0  0  0  0  0  0
    2.1430    5.3985  -23.7918 C   0  0  0  0  0  0  0  0  0  0  0  0
    0.7237    5.2511  -22.7885 S   0  0  0  0  0  0  0  0  0  0  0  0
    0.6861    6.9742  -22.5202 C   0  0  0  0  0  0  0  0  0  0  0  0
    5.4866    9.7854  -22.2170 N   0  0  0  0  0  0  0  0  0  0  0  0
    5.5061   11.1238  -22.2080 C   0  0  0  0  0  0  0  0  0  0  0  0
    5.5237   11.9841  -23.2264 N   0  0  0  0  0  0  0  0  0  0  0  0
    5.5237   13.2393  -22.6324 N   0  0  0  0  0  0  0  0  0  0  0  0
    5.5403   13.0131  -21.3168 C   0  0  0  0  0  0  0  0  0  0  0  0
    5.6612   14.0451  -20.2531 C   0  0  0  0  0  0  0  0  0  0  0  0
    6.9353   14.1135  -19.8691 F   0  0  0  0  0  0  0  0  0  0  0  0
    5.2623   15.2334  -20.7085 F   0  0  0  0  0  0  0  0  0  0  0  0
    4.9084   13.7135  -19.2034 F   0  0  0  0  0  0  0  0  0  0  0  0
    5.5472   11.7135  -21.0170 N   0  0  0  0  0  0  0  0  0  0  0  0
  1  2  2  0
  2  3  1  0
  2 10  1  0
  3  4  2  0
  4  5  1  0
  5  6  1  0
  5  9  2  0
  6  7  2  0
  7  8  1  0
  8  9  1  0
 10 11  1  0
 11 12  2  0
 11 19  1  0
 12 13  1  0
 13 14  2  0
 14 15  1  0
 14 19  1  0
 15 16  1  0
 15 17  1  0
 15 18  1  0
M  CHG  1  10  -1
M  END
>  <s_m_entry_id>  (89) 
28

>  <s_m_entry_name>  (89) 
ZINC000096256301.1

>  <s_m_Source_Path>  (89) 
/home/bhw/schrodinger/schrodinger/0995dock

>  <s_m_Source_File>  (89) 
0995dock_pv.maegz

>  <i_m_Source_File_Index>  (89) 
28

>  <zinc_id>  (89) 
ZINC000096256301

>  <smiles>  (89) 
O=C(/C=C\c1ccsc1)Nc1nnc(C(F)(F)F)[nH]1

>  <chiral flag>  (89) 
0

>  <version>  (89) 
0

>  <i_lp_mmshare_version>  (89) 
44012

>  <s_epik_input>  (89) 
RkMoRikoRiljKFtuSF0xKW5uYzFbTkhdQyg9TykvW0NIXT1bQ0hdXGMyW2NIXVtjSF1zW2NIXTI=

>  <s_epik_cmdline>  (89) 
J2VwaWtfcHl0aG9uJywgJy1waCcsICc3LjAnLCAnLXRuJywgJzgnLCAnLW1hJywgJzIwMCcsICctaW1hZScsICc8aW5maWxlLm1hZT4nLCAnLW9tYWUnLCAnPG91dGZpbGUubWFlPic=

>  <r_epik_Ionization_Penalty>  (89) 
0.0041

>  <r_epik_Ionization_Penalty_Charging>  (89) 
0.0041

>  <r_epik_Ionization_Penalty_Neutral>  (89) 
0.0000

>  <r_epik_State_Penalty>  (89) 
0.5156

>  <r_epik_Charging_Adjusted_Penalty>  (89) 
0.519755174658314

>  <i_epik_Tot_Q>  (89) 
-1

>  <i_epik_Tot_abs_Q>  (89) 
1

>  <i_f3d_flags>  (89) 
0

>  <s_lp_Force_Field>  (89) 
OPLS_2005

>  <r_lp_Energy>  (89) 
12.88882

>  <b_lp_Chiralities_Consistent>  (89) 
1

>  <s_lp_Variant>  (89) 
ZINC000096256301-2

>  <s_m_job_name>  (89) 
zinc0995

>  <s_i_glide_gridfile>  (89) 
zincglide

>  <i_i_glide_lignum>  (89) 
25885

>  <i_i_glide_rotatable_bonds>  (89) 
5

>  <r_i_docking_score>  (89) 
-6.32932888791614

>  <r_i_glide_ligand_efficiency>  (89) 
-0.333122573048218

>  <r_i_glide_ligand_efficiency_sa>  (89) 
-0.888904822275918

>  <r_i_glide_ligand_efficiency_ln>  (89) 
-1.60462081460661

>  <r_i_glide_gscore>  (89) 
-6.84492888791614

>  <r_i_glide_lipo>  (89) 
-0.702634439865545

>  <r_i_glide_hbond>  (89) 
-0.701571519997002

>  <r_i_glide_metal>  (89) 
0

>  <r_i_glide_rewards>  (89) 
-1.65819477250686

>  <r_i_glide_evdw>  (89) 
-22.9836368560791

>  <r_i_glide_ecoul>  (89) 
-18.4329948425293

>  <r_i_glide_erotb>  (89) 
0.660779884379228

>  <r_i_glide_esite>  (89) 
-0.529176970742607

>  <r_i_glide_emodel>  (89) 
-58.7122231848364

>  <r_i_glide_energy>  (89) 
-41.4166316986084

>  <r_i_glide_einternal>  (89) 
5.48619318008423

>  <i_i_glide_confnum>  (89) 
7

>  <i_i_glide_posenum>  (89) 
352

>  <r_i_glide_eff_state_penalty>  (89) 
0.5156

>  <s_m_subgroup_title>  (89) 
0995dock_pv

>  <s_m_subgroupid>  (89) 
0995dock_pv

>  <b_m_subgroup_collapsed>  (89) 
0

>  <class>  (89) 
7

>  <isCentroid>  (89) 
flase

$$$$
ZINC000096416145
     RDKit          3D

 22 23  0  0  1  0  0  0  0  0999 V2000
    4.5819   12.3760  -22.2987 C   0  0  0  0  0  0  0  0  0  0  0  0
    5.5271   10.9537  -22.9476 S   0  0  0  0  0  0  0  0  0  0  0  0
    6.3035   11.4584  -24.0930 O   0  0  0  0  0  0  0  0  0  0  0  0
    6.3237   10.4778  -21.8169 O   0  0  0  0  0  0  0  0  0  0  0  0
    4.3305    9.9540  -23.3840 N   0  0  0  0  0  0  0  0  0  0  0  0
    3.9237    8.9136  -22.6170 C   0  0  0  0  0  0  0  0  0  0  0  0
    4.4415    8.4650  -21.5968 O   0  0  0  0  0  0  0  0  0  0  0  0
    2.7177    8.1869  -23.1317 C   0  0  0  0  0  0  0  0  0  0  0  0
    1.6421    8.8284  -23.8158 C   0  0  0  0  0  0  0  0  0  0  0  0
    0.7085    7.8369  -23.9459 C   0  0  0  0  0  0  0  0  0  0  0  0
    1.2239    6.6947  -23.3608 N   0  0  0  0  0  0  0  0  0  0  0  0
    0.6234    5.4292  -23.1741 C   0  0  0  0  0  0  0  0  0  0  0  0
    1.4010    4.2532  -23.2575 C   0  0  0  0  0  0  0  0  0  0  0  0
    0.8134    2.9980  -23.0170 C   0  0  0  0  0  0  0  0  0  0  0  0
   -0.5528    2.9105  -22.6901 C   0  0  0  0  0  0  0  0  0  0  0  0
   -1.3441    4.0777  -22.6170 C   0  0  0  0  0  0  0  0  0  0  0  0
   -2.8224    3.9888  -22.2695 C   0  0  0  0  0  0  0  0  0  0  0  0
   -3.5155    4.9039  -22.9479 F   0  0  0  0  0  0  0  0  0  0  0  0
   -3.3152    2.7855  -22.5660 F   0  0  0  0  0  0  0  0  0  0  0  0
   -2.9809    4.2087  -20.9651 F   0  0  0  0  0  0  0  0  0  0  0  0
   -0.7494    5.3353  -22.8602 C   0  0  0  0  0  0  0  0  0  0  0  0
    2.4647    6.9131  -22.8891 N   0  0  0  0  0  0  0  0  0  0  0  0
  1  2  1  0
  2  3  2  0
  2  4  2  0
  2  5  1  0
  5  6  1  0
  6  7  2  0
  6  8  1  0
  8  9  1  0
  8 22  2  0
  9 10  2  0
 10 11  1  0
 11 12  1  0
 11 22  1  0
 12 13  2  0
 12 21  1  0
 13 14  1  0
 14 15  2  0
 15 16  1  0
 16 17  1  0
 16 21  2  0
 17 18  1  0
 17 19  1  0
 17 20  1  0
M  CHG  1   5  -1
M  END
>  <s_m_entry_id>  (90) 
86

>  <s_m_entry_name>  (90) 
ZINC000096416145.1

>  <s_m_Source_Path>  (90) 
/home/bhw/schrodinger/schrodinger/0995dock

>  <s_m_Source_File>  (90) 
0995dock_pv.maegz

>  <i_m_Source_File_Index>  (90) 
86

>  <zinc_id>  (90) 
ZINC000096416145

>  <smiles>  (90) 
CS(=O)(=O)/N=C(\O)c1ccn(-c2cccc(C(F)(F)F)c2)n1

>  <chiral flag>  (90) 
0

>  <version>  (90) 
0

>  <i_lp_mmshare_version>  (90) 
44012

>  <s_epik_input>  (90) 
W0NIM11TKD1PKSg9TykvTj1DKFxbT0hdKWMxW2NIXVtjSF1uKG4xKS1jMltjSF1bY0hdW2NIXWMoQyhGKShGKUYpW2NIXTI=

>  <s_epik_cmdline>  (90) 
J2VwaWtfcHl0aG9uJywgJy1waCcsICc3LjAnLCAnLXRuJywgJzgnLCAnLW1hJywgJzIwMCcsICctaW1hZScsICc8aW5maWxlLm1hZT4nLCAnLW9tYWUnLCAnPG91dGZpbGUubWFlPic=

>  <r_epik_Ionization_Penalty>  (90) 
0.0033

>  <r_epik_Ionization_Penalty_Charging>  (90) 
0.0033

>  <r_epik_Ionization_Penalty_Neutral>  (90) 
0.0000

>  <r_epik_State_Penalty>  (90) 
0.0024

>  <r_epik_Charging_Adjusted_Penalty>  (90) 
0.00569269495549179

>  <i_epik_Tot_Q>  (90) 
-1

>  <i_epik_Tot_abs_Q>  (90) 
1

>  <i_f3d_flags>  (90) 
0

>  <s_lp_Force_Field>  (90) 
OPLS_2005

>  <r_lp_Energy>  (90) 
5.728431

>  <b_lp_Chiralities_Consistent>  (90) 
1

>  <s_lp_Variant>  (90) 
ZINC000096416145-1

>  <s_m_job_name>  (90) 
zinc0995

>  <s_i_glide_gridfile>  (90) 
zincglide

>  <i_i_glide_lignum>  (90) 
26017

>  <i_i_glide_rotatable_bonds>  (90) 
5

>  <r_i_docking_score>  (90) 
-5.97157605562302

>  <r_i_glide_ligand_efficiency>  (90) 
-0.271435275255592

>  <r_i_glide_ligand_efficiency_sa>  (90) 
-0.760572316209785

>  <r_i_glide_ligand_efficiency_ln>  (90) 
-1.45967100652328

>  <r_i_glide_gscore>  (90) 
-5.97397605562302

>  <r_i_glide_lipo>  (90) 
-1.1228700805843

>  <r_i_glide_hbond>  (90) 
-0.211024148007674

>  <r_i_glide_metal>  (90) 
0

>  <r_i_glide_rewards>  (90) 
-1.59873143046231

>  <r_i_glide_evdw>  (90) 
-27.8023242950439

>  <r_i_glide_ecoul>  (90) 
-13.8398752212524

>  <r_i_glide_erotb>  (90) 
0.511704755594029

>  <r_i_glide_esite>  (90) 
-0.0869576542226967

>  <r_i_glide_emodel>  (90) 
-56.3938161245945

>  <r_i_glide_energy>  (90) 
-41.6421995162964

>  <r_i_glide_einternal>  (90) 
5.79068660736084

>  <i_i_glide_confnum>  (90) 
3

>  <i_i_glide_posenum>  (90) 
298

>  <r_i_glide_eff_state_penalty>  (90) 
0.0024

>  <s_m_subgroup_title>  (90) 
0995dock_pv

>  <s_m_subgroupid>  (90) 
0995dock_pv

>  <b_m_subgroup_collapsed>  (90) 
0

>  <class>  (90) 
9

>  <isCentroid>  (90) 
flase

$$$$
ZINC000097826605
     RDKit          3D

 20 20  0  0  1  0  0  0  0  0999 V2000
    3.8312   11.6121  -20.3454 C   0  0  0  0  0  0  0  0  0  0  0  0
    3.2768   11.8817  -21.7507 C   0  0  0  0  0  0  0  0  0  0  0  0
    3.0531   13.3926  -21.9724 C   0  0  0  0  0  0  0  0  0  0  0  0
    4.0841   11.1841  -22.8967 C   0  0  1  0  0  0  0  0  0  0  0  0
    5.5601   11.6218  -23.0295 C   0  0  0  0  0  0  0  0  0  0  0  0
    5.9236   12.7200  -22.5604 O   0  0  0  0  0  0  0  0  0  0  0  0
    6.3235   10.9074  -23.7199 O   0  0  0  0  0  0  0  0  0  0  0  0
    3.9163    9.3149  -22.9089 S   0  0  0  0  0  0  0  0  0  0  0  0
    4.7857    8.6870  -21.8163 O   0  0  0  0  0  0  0  0  0  0  0  0
    2.1286    9.0525  -22.4713 C   0  0  0  0  0  0  0  0  0  0  0  0
    1.7570    7.5792  -22.4788 C   0  0  0  0  0  0  0  0  0  0  0  0
    1.9496    6.7831  -23.6283 C   0  0  0  0  0  0  0  0  0  0  0  0
    1.5234    5.4389  -23.6358 C   0  0  0  0  0  0  0  0  0  0  0  0
    0.8958    4.8800  -22.5003 C   0  0  0  0  0  0  0  0  0  0  0  0
    0.3636    3.4554  -22.5321 C   0  0  0  0  0  0  0  0  0  0  0  0
    0.3237    2.9251  -21.3117 F   0  0  0  0  0  0  0  0  0  0  0  0
   -0.8751    3.4668  -23.0171 F   0  0  0  0  0  0  0  0  0  0  0  0
    1.1241    2.6846  -23.3056 F   0  0  0  0  0  0  0  0  0  0  0  0
    0.7239    5.6736  -21.3467 C   0  0  0  0  0  0  0  0  0  0  0  0
    1.1562    7.0123  -21.3349 C   0  0  0  0  0  0  0  0  0  0  0  0
  1  2  1  0
  2  3  1  0
  4  2  1  1
  4  5  1  0
  4  8  1  0
  5  6  2  0
  5  7  1  0
  8  9  2  0
  8 10  1  0
 10 11  1  0
 11 12  2  0
 11 20  1  0
 12 13  1  0
 13 14  2  0
 14 15  1  0
 14 19  1  0
 15 16  1  0
 15 17  1  0
 15 18  1  0
 19 20  2  0
M  CHG  1   7  -1
M  END
>  <s_m_entry_id>  (91) 
31

>  <s_m_entry_name>  (91) 
ZINC000097826605.1

>  <s_m_Source_Path>  (91) 
/home/bhw/schrodinger/schrodinger/0995dock

>  <s_m_Source_File>  (91) 
0995dock_pv.maegz

>  <i_m_Source_File_Index>  (91) 
31

>  <zinc_id>  (91) 
ZINC000097826605

>  <smiles>  (91) 
CC(C)[C@@H](C(=O)O)[S@@](=O)Cc1ccc(C(F)(F)F)cc1

>  <chiral flag>  (91) 
0

>  <version>  (91) 
0

>  <i_lp_mmshare_version>  (91) 
44012

>  <s_epik_input>  (91) 
W0NIM11bQ0hdKFtDSDNdKVtDQEBIXShDKD1PKVtPSF0pW1NAQF0oPU8pW0NIMl1jMVtjSF1bY0hdYyhDKEYpKEYpRilbY0hdW2NIXTE=

>  <s_epik_cmdline>  (91) 
J2VwaWtfcHl0aG9uJywgJy1waCcsICc3LjAnLCAnLXRuJywgJzgnLCAnLW1hJywgJzIwMCcsICctaW1hZScsICc8aW5maWxlLm1hZT4nLCAnLW9tYWUnLCAnPG91dGZpbGUubWFlPic=

>  <r_epik_Ionization_Penalty>  (91) 
0.0001

>  <r_epik_Ionization_Penalty_Charging>  (91) 
0.0001

>  <r_epik_Ionization_Penalty_Neutral>  (91) 
0.0000

>  <r_epik_State_Penalty>  (91) 
0.0000

>  <r_epik_Charging_Adjusted_Penalty>  (91) 
5.48536420100557e-05

>  <i_epik_Tot_Q>  (91) 
-1

>  <i_epik_Tot_abs_Q>  (91) 
1

>  <i_f3d_flags>  (91) 
0

>  <s_lp_Force_Field>  (91) 
OPLS_2005

>  <r_lp_Energy>  (91) 
7.182697

>  <b_lp_Chiralities_Consistent>  (91) 
1

>  <s_lp_Variant>  (91) 
ZINC000097826605-1

>  <s_m_job_name>  (91) 
zinc0995

>  <s_i_glide_gridfile>  (91) 
zincglide

>  <i_i_glide_lignum>  (91) 
26447

>  <i_i_glide_rotatable_bonds>  (91) 
6

>  <r_i_docking_score>  (91) 
-6.31092332945565

>  <r_i_glide_ligand_efficiency>  (91) 
-0.315546166472783

>  <r_i_glide_ligand_efficiency_sa>  (91) 
-0.856524072267405

>  <r_i_glide_ligand_efficiency_ln>  (91) 
-1.57941596118061

>  <r_i_glide_gscore>  (91) 
-6.31092332945565

>  <r_i_glide_lipo>  (91) 
-0.948291626471727

>  <r_i_glide_hbond>  (91) 
-0.279496689582628

>  <r_i_glide_metal>  (91) 
0

>  <r_i_glide_rewards>  (91) 
-2.8154600760689

>  <r_i_glide_evdw>  (91) 
-24.2733974456787

>  <r_i_glide_ecoul>  (91) 
-9.44540596008301

>  <r_i_glide_erotb>  (91) 
0.411040328932063

>  <r_i_glide_esite>  (91) 
-0.0482344999680702

>  <r_i_glide_emodel>  (91) 
-51.0863447373849

>  <r_i_glide_energy>  (91) 
-33.7188034057617

>  <r_i_glide_einternal>  (91) 
2.11269092559814

>  <i_i_glide_confnum>  (91) 
17

>  <i_i_glide_posenum>  (91) 
215

>  <r_i_glide_eff_state_penalty>  (91) 
0

>  <r_lp_tautomer_probability>  (91) 
1

>  <s_m_subgroup_title>  (91) 
0995dock_pv

>  <s_m_subgroupid>  (91) 
0995dock_pv

>  <b_m_subgroup_collapsed>  (91) 
0

>  <class>  (91) 
5

>  <isCentroid>  (91) 
true

$$$$
ZINC000097826606
     RDKit          3D

 20 20  0  0  1  0  0  0  0  0999 V2000
    1.7639   11.6719  -21.4149 C   0  0  0  0  0  0  0  0  0  0  0  0
    2.9266   11.9648  -22.3875 C   0  0  0  0  0  0  0  0  0  0  0  0
    3.1496   13.4930  -22.4156 C   0  0  0  0  0  0  0  0  0  0  0  0
    4.2143   11.1395  -22.0460 C   0  0  2  0  0  0  0  0  0  0  0  0
    5.3797   11.4027  -23.0177 C   0  0  0  0  0  0  0  0  0  0  0  0
    5.7297   10.5131  -23.8170 O   0  0  0  0  0  0  0  0  0  0  0  0
    5.9233   12.5261  -22.9793 O   0  0  0  0  0  0  0  0  0  0  0  0
    3.8125    9.3225  -21.8304 S   0  0  0  0  0  0  0  0  0  0  0  0
    5.1132    8.5135  -21.8170 O   0  0  0  0  0  0  0  0  0  0  0  0
    2.9120    8.8866  -23.3979 C   0  0  0  0  0  0  0  0  0  0  0  0
    2.2570    7.5303  -23.2003 C   0  0  0  0  0  0  0  0  0  0  0  0
    1.1955    7.3944  -22.2799 C   0  0  0  0  0  0  0  0  0  0  0  0
    0.6022    6.1374  -22.0579 C   0  0  0  0  0  0  0  0  0  0  0  0
    1.0634    4.9985  -22.7505 C   0  0  0  0  0  0  0  0  0  0  0  0
    0.4175    3.6464  -22.4870 C   0  0  0  0  0  0  0  0  0  0  0  0
    0.3208    3.4409  -21.1747 F   0  0  0  0  0  0  0  0  0  0  0  0
   -0.8060    3.6312  -23.0133 F   0  0  0  0  0  0  0  0  0  0  0  0
    1.1216    2.6475  -23.0161 F   0  0  0  0  0  0  0  0  0  0  0  0
    2.1149    5.1390  -23.6817 C   0  0  0  0  0  0  0  0  0  0  0  0
    2.7035    6.3977  -23.9115 C   0  0  0  0  0  0  0  0  0  0  0  0
  1  2  1  0
  2  3  1  0
  4  2  1  6
  4  5  1  0
  4  8  1  0
  5  6  2  0
  5  7  1  0
  8  9  2  0
  8 10  1  0
 10 11  1  0
 11 12  2  0
 11 20  1  0
 12 13  1  0
 13 14  2  0
 14 15  1  0
 14 19  1  0
 15 16  1  0
 15 17  1  0
 15 18  1  0
 19 20  2  0
M  CHG  1   7  -1
M  END
>  <s_m_entry_id>  (92) 
33

>  <s_m_entry_name>  (92) 
ZINC000097826606.1

>  <s_m_Source_Path>  (92) 
/home/bhw/schrodinger/schrodinger/0995dock

>  <s_m_Source_File>  (92) 
0995dock_pv.maegz

>  <i_m_Source_File_Index>  (92) 
33

>  <zinc_id>  (92) 
ZINC000097826606

>  <smiles>  (92) 
CC(C)[C@H](C(=O)O)[S@@](=O)Cc1ccc(C(F)(F)F)cc1

>  <chiral flag>  (92) 
0

>  <version>  (92) 
0

>  <i_lp_mmshare_version>  (92) 
44012

>  <s_epik_input>  (92) 
W0NIM11bQ0hdKFtDSDNdKVtDQEhdKEMoPU8pW09IXSlbU0BdKD1PKVtDSDJdYzFbY0hdW2NIXWMoQyhGKShGKUYpW2NIXVtjSF0x

>  <s_epik_cmdline>  (92) 
J2VwaWtfcHl0aG9uJywgJy1waCcsICc3LjAnLCAnLXRuJywgJzgnLCAnLW1hJywgJzIwMCcsICctaW1hZScsICc8aW5maWxlLm1hZT4nLCAnLW9tYWUnLCAnPG91dGZpbGUubWFlPic=

>  <r_epik_Ionization_Penalty>  (92) 
0.0001

>  <r_epik_Ionization_Penalty_Charging>  (92) 
0.0001

>  <r_epik_Ionization_Penalty_Neutral>  (92) 
0.0000

>  <r_epik_State_Penalty>  (92) 
0.0000

>  <r_epik_Charging_Adjusted_Penalty>  (92) 
5.48536420100557e-05

>  <i_epik_Tot_Q>  (92) 
-1

>  <i_epik_Tot_abs_Q>  (92) 
1

>  <i_f3d_flags>  (92) 
0

>  <s_lp_Force_Field>  (92) 
OPLS_2005

>  <r_lp_Energy>  (92) 
6.99927

>  <b_lp_Chiralities_Consistent>  (92) 
1

>  <s_lp_Variant>  (92) 
ZINC000097826606-2

>  <s_m_job_name>  (92) 
zinc0995

>  <s_i_glide_gridfile>  (92) 
zincglide

>  <i_i_glide_lignum>  (92) 
26450

>  <i_i_glide_rotatable_bonds>  (92) 
6

>  <r_i_docking_score>  (92) 
-6.29360196556047

>  <r_i_glide_ligand_efficiency>  (92) 
-0.314680098278024

>  <r_i_glide_ligand_efficiency_sa>  (92) 
-0.854173201504726

>  <r_i_glide_ligand_efficiency_ln>  (92) 
-1.57508099509446

>  <r_i_glide_gscore>  (92) 
-6.29360196556047

>  <r_i_glide_lipo>  (92) 
-1.02552056917652

>  <r_i_glide_hbond>  (92) 
-0.449745616808625

>  <r_i_glide_metal>  (92) 
0

>  <r_i_glide_rewards>  (92) 
-2.35219686349195

>  <r_i_glide_evdw>  (92) 
-25.3236045837402

>  <r_i_glide_ecoul>  (92) 
-11.9143943786621

>  <r_i_glide_erotb>  (92) 
0.587200469902947

>  <r_i_glide_esite>  (92) 
0

>  <r_i_glide_emodel>  (92) 
-53.898814077646

>  <r_i_glide_energy>  (92) 
-37.2379989624023

>  <r_i_glide_einternal>  (92) 
6.57679176330566

>  <i_i_glide_confnum>  (92) 
11

>  <i_i_glide_posenum>  (92) 
10

>  <r_i_glide_eff_state_penalty>  (92) 
0

>  <r_lp_tautomer_probability>  (92) 
1

>  <s_m_subgroup_title>  (92) 
0995dock_pv

>  <s_m_subgroupid>  (92) 
0995dock_pv

>  <b_m_subgroup_collapsed>  (92) 
0

>  <class>  (92) 
5

>  <isCentroid>  (92) 
flase

$$$$
ZINC000097826607
     RDKit          3D

 20 20  0  0  1  0  0  0  0  0999 V2000
    3.8312   11.6121  -20.3454 C   0  0  0  0  0  0  0  0  0  0  0  0
    3.2768   11.8817  -21.7507 C   0  0  0  0  0  0  0  0  0  0  0  0
    3.0531   13.3926  -21.9724 C   0  0  0  0  0  0  0  0  0  0  0  0
    4.0841   11.1841  -22.8967 C   0  0  1  0  0  0  0  0  0  0  0  0
    5.5601   11.6218  -23.0295 C   0  0  0  0  0  0  0  0  0  0  0  0
    5.9236   12.7200  -22.5604 O   0  0  0  0  0  0  0  0  0  0  0  0
    6.3235   10.9074  -23.7199 O   0  0  0  0  0  0  0  0  0  0  0  0
    3.9163    9.3149  -22.9089 S   0  0  0  0  0  0  0  0  0  0  0  0
    4.7857    8.6870  -21.8163 O   0  0  0  0  0  0  0  0  0  0  0  0
    2.1286    9.0525  -22.4713 C   0  0  0  0  0  0  0  0  0  0  0  0
    1.7570    7.5792  -22.4788 C   0  0  0  0  0  0  0  0  0  0  0  0
    1.9496    6.7831  -23.6283 C   0  0  0  0  0  0  0  0  0  0  0  0
    1.5234    5.4389  -23.6358 C   0  0  0  0  0  0  0  0  0  0  0  0
    0.8958    4.8800  -22.5003 C   0  0  0  0  0  0  0  0  0  0  0  0
    0.3636    3.4554  -22.5321 C   0  0  0  0  0  0  0  0  0  0  0  0
    0.3237    2.9251  -21.3117 F   0  0  0  0  0  0  0  0  0  0  0  0
   -0.8751    3.4668  -23.0171 F   0  0  0  0  0  0  0  0  0  0  0  0
    1.1241    2.6846  -23.3056 F   0  0  0  0  0  0  0  0  0  0  0  0
    0.7239    5.6736  -21.3467 C   0  0  0  0  0  0  0  0  0  0  0  0
    1.1562    7.0123  -21.3349 C   0  0  0  0  0  0  0  0  0  0  0  0
  1  2  1  0
  2  3  1  0
  4  2  1  1
  4  5  1  0
  4  8  1  0
  5  6  2  0
  5  7  1  0
  8  9  2  0
  8 10  1  0
 10 11  1  0
 11 12  2  0
 11 20  1  0
 12 13  1  0
 13 14  2  0
 14 15  1  0
 14 19  1  0
 15 16  1  0
 15 17  1  0
 15 18  1  0
 19 20  2  0
M  CHG  1   7  -1
M  END
>  <s_m_entry_id>  (93) 
32

>  <s_m_entry_name>  (93) 
ZINC000097826607.1

>  <s_m_Source_Path>  (93) 
/home/bhw/schrodinger/schrodinger/0995dock

>  <s_m_Source_File>  (93) 
0995dock_pv.maegz

>  <i_m_Source_File_Index>  (93) 
32

>  <zinc_id>  (93) 
ZINC000097826607

>  <smiles>  (93) 
CC(C)[C@@H](C(=O)O)[S@](=O)Cc1ccc(C(F)(F)F)cc1

>  <chiral flag>  (93) 
0

>  <version>  (93) 
0

>  <i_lp_mmshare_version>  (93) 
44012

>  <s_epik_input>  (93) 
W0NIM11bQ0hdKFtDSDNdKVtDQEBIXShDKD1PKVtPSF0pW1NAXSg9TylbQ0gyXWMxW2NIXVtjSF1jKEMoRikoRilGKVtjSF1bY0hdMQ==

>  <s_epik_cmdline>  (93) 
J2VwaWtfcHl0aG9uJywgJy1waCcsICc3LjAnLCAnLXRuJywgJzgnLCAnLW1hJywgJzIwMCcsICctaW1hZScsICc8aW5maWxlLm1hZT4nLCAnLW9tYWUnLCAnPG91dGZpbGUubWFlPic=

>  <r_epik_Ionization_Penalty>  (93) 
0.0001

>  <r_epik_Ionization_Penalty_Charging>  (93) 
0.0001

>  <r_epik_Ionization_Penalty_Neutral>  (93) 
0.0000

>  <r_epik_State_Penalty>  (93) 
0.0000

>  <r_epik_Charging_Adjusted_Penalty>  (93) 
5.48536420100557e-05

>  <i_epik_Tot_Q>  (93) 
-1

>  <i_epik_Tot_abs_Q>  (93) 
1

>  <i_f3d_flags>  (93) 
0

>  <s_lp_Force_Field>  (93) 
OPLS_2005

>  <r_lp_Energy>  (93) 
7.182697

>  <b_lp_Chiralities_Consistent>  (93) 
1

>  <s_lp_Variant>  (93) 
ZINC000097826607-2

>  <s_m_job_name>  (93) 
zinc0995

>  <s_i_glide_gridfile>  (93) 
zincglide

>  <i_i_glide_lignum>  (93) 
26452

>  <i_i_glide_rotatable_bonds>  (93) 
6

>  <r_i_docking_score>  (93) 
-6.31092332945565

>  <r_i_glide_ligand_efficiency>  (93) 
-0.315546166472783

>  <r_i_glide_ligand_efficiency_sa>  (93) 
-0.856524072267405

>  <r_i_glide_ligand_efficiency_ln>  (93) 
-1.57941596118061

>  <r_i_glide_gscore>  (93) 
-6.31092332945565

>  <r_i_glide_lipo>  (93) 
-0.948291626471727

>  <r_i_glide_hbond>  (93) 
-0.279496689582628

>  <r_i_glide_metal>  (93) 
0

>  <r_i_glide_rewards>  (93) 
-2.8154600760689

>  <r_i_glide_evdw>  (93) 
-24.2733974456787

>  <r_i_glide_ecoul>  (93) 
-9.44540596008301

>  <r_i_glide_erotb>  (93) 
0.411040328932063

>  <r_i_glide_esite>  (93) 
-0.0482344999680702

>  <r_i_glide_emodel>  (93) 
-51.0863447373849

>  <r_i_glide_energy>  (93) 
-33.7188034057617

>  <r_i_glide_einternal>  (93) 
2.11269092559814

>  <i_i_glide_confnum>  (93) 
17

>  <i_i_glide_posenum>  (93) 
215

>  <r_i_glide_eff_state_penalty>  (93) 
0

>  <r_lp_tautomer_probability>  (93) 
1

>  <s_m_subgroup_title>  (93) 
0995dock_pv

>  <s_m_subgroupid>  (93) 
0995dock_pv

>  <b_m_subgroup_collapsed>  (93) 
0

>  <class>  (93) 
5

>  <isCentroid>  (93) 
flase

$$$$
ZINC000097826608
     RDKit          3D

 20 20  0  0  1  0  0  0  0  0999 V2000
    1.7639   11.6719  -21.4149 C   0  0  0  0  0  0  0  0  0  0  0  0
    2.9266   11.9648  -22.3875 C   0  0  0  0  0  0  0  0  0  0  0  0
    3.1496   13.4930  -22.4156 C   0  0  0  0  0  0  0  0  0  0  0  0
    4.2143   11.1395  -22.0460 C   0  0  2  0  0  0  0  0  0  0  0  0
    5.3797   11.4027  -23.0177 C   0  0  0  0  0  0  0  0  0  0  0  0
    5.7297   10.5131  -23.8170 O   0  0  0  0  0  0  0  0  0  0  0  0
    5.9233   12.5261  -22.9793 O   0  0  0  0  0  0  0  0  0  0  0  0
    3.8125    9.3225  -21.8304 S   0  0  0  0  0  0  0  0  0  0  0  0
    5.1132    8.5135  -21.8170 O   0  0  0  0  0  0  0  0  0  0  0  0
    2.9120    8.8866  -23.3979 C   0  0  0  0  0  0  0  0  0  0  0  0
    2.2570    7.5303  -23.2003 C   0  0  0  0  0  0  0  0  0  0  0  0
    1.1955    7.3944  -22.2799 C   0  0  0  0  0  0  0  0  0  0  0  0
    0.6022    6.1374  -22.0579 C   0  0  0  0  0  0  0  0  0  0  0  0
    1.0634    4.9985  -22.7505 C   0  0  0  0  0  0  0  0  0  0  0  0
    0.4175    3.6464  -22.4870 C   0  0  0  0  0  0  0  0  0  0  0  0
    0.3208    3.4409  -21.1747 F   0  0  0  0  0  0  0  0  0  0  0  0
   -0.8060    3.6312  -23.0133 F   0  0  0  0  0  0  0  0  0  0  0  0
    1.1216    2.6475  -23.0161 F   0  0  0  0  0  0  0  0  0  0  0  0
    2.1149    5.1390  -23.6817 C   0  0  0  0  0  0  0  0  0  0  0  0
    2.7035    6.3977  -23.9115 C   0  0  0  0  0  0  0  0  0  0  0  0
  1  2  1  0
  2  3  1  0
  4  2  1  6
  4  5  1  0
  4  8  1  0
  5  6  2  0
  5  7  1  0
  8  9  2  0
  8 10  1  0
 10 11  1  0
 11 12  2  0
 11 20  1  0
 12 13  1  0
 13 14  2  0
 14 15  1  0
 14 19  1  0
 15 16  1  0
 15 17  1  0
 15 18  1  0
 19 20  2  0
M  CHG  1   7  -1
M  END
>  <s_m_entry_id>  (94) 
34

>  <s_m_entry_name>  (94) 
ZINC000097826608.1

>  <s_m_Source_Path>  (94) 
/home/bhw/schrodinger/schrodinger/0995dock

>  <s_m_Source_File>  (94) 
0995dock_pv.maegz

>  <i_m_Source_File_Index>  (94) 
34

>  <zinc_id>  (94) 
ZINC000097826608

>  <smiles>  (94) 
CC(C)[C@H](C(=O)O)[S@](=O)Cc1ccc(C(F)(F)F)cc1

>  <chiral flag>  (94) 
0

>  <version>  (94) 
0

>  <i_lp_mmshare_version>  (94) 
44012

>  <s_epik_input>  (94) 
W0NIM11bQ0hdKFtDSDNdKVtDQEhdKEMoPU8pW09IXSlbU0BdKD1PKVtDSDJdYzFbY0hdW2NIXWMoQyhGKShGKUYpW2NIXVtjSF0x

>  <s_epik_cmdline>  (94) 
J2VwaWtfcHl0aG9uJywgJy1waCcsICc3LjAnLCAnLXRuJywgJzgnLCAnLW1hJywgJzIwMCcsICctaW1hZScsICc8aW5maWxlLm1hZT4nLCAnLW9tYWUnLCAnPG91dGZpbGUubWFlPic=

>  <r_epik_Ionization_Penalty>  (94) 
0.0001

>  <r_epik_Ionization_Penalty_Charging>  (94) 
0.0001

>  <r_epik_Ionization_Penalty_Neutral>  (94) 
0.0000

>  <r_epik_State_Penalty>  (94) 
0.0000

>  <r_epik_Charging_Adjusted_Penalty>  (94) 
5.48536420100557e-05

>  <i_epik_Tot_Q>  (94) 
-1

>  <i_epik_Tot_abs_Q>  (94) 
1

>  <i_f3d_flags>  (94) 
0

>  <s_lp_Force_Field>  (94) 
OPLS_2005

>  <r_lp_Energy>  (94) 
5.433491

>  <b_lp_Chiralities_Consistent>  (94) 
1

>  <s_lp_Variant>  (94) 
ZINC000097826608-1

>  <s_m_job_name>  (94) 
zinc0995

>  <s_i_glide_gridfile>  (94) 
zincglide

>  <i_i_glide_lignum>  (94) 
26453

>  <i_i_glide_rotatable_bonds>  (94) 
6

>  <r_i_docking_score>  (94) 
-6.29360196556047

>  <r_i_glide_ligand_efficiency>  (94) 
-0.314680098278024

>  <r_i_glide_ligand_efficiency_sa>  (94) 
-0.854173201504726

>  <r_i_glide_ligand_efficiency_ln>  (94) 
-1.57508099509446

>  <r_i_glide_gscore>  (94) 
-6.29360196556047

>  <r_i_glide_lipo>  (94) 
-1.02552056917652

>  <r_i_glide_hbond>  (94) 
-0.449745616808625

>  <r_i_glide_metal>  (94) 
0

>  <r_i_glide_rewards>  (94) 
-2.35219686349195

>  <r_i_glide_evdw>  (94) 
-25.3236045837402

>  <r_i_glide_ecoul>  (94) 
-11.9143943786621

>  <r_i_glide_erotb>  (94) 
0.587200469902947

>  <r_i_glide_esite>  (94) 
0

>  <r_i_glide_emodel>  (94) 
-53.898814077646

>  <r_i_glide_energy>  (94) 
-37.2379989624023

>  <r_i_glide_einternal>  (94) 
6.57679176330566

>  <i_i_glide_confnum>  (94) 
11

>  <i_i_glide_posenum>  (94) 
10

>  <r_i_glide_eff_state_penalty>  (94) 
0

>  <r_lp_tautomer_probability>  (94) 
1

>  <s_m_subgroup_title>  (94) 
0995dock_pv

>  <s_m_subgroupid>  (94) 
0995dock_pv

>  <b_m_subgroup_collapsed>  (94) 
0

>  <class>  (94) 
5

>  <isCentroid>  (94) 
flase

$$$$
ZINC000098213922
     RDKit          3D

 14 14  0  0  1  0  0  0  0  0999 V2000
    6.3712   10.7123  -23.8169 O   0  0  0  0  0  0  0  0  0  0  0  0
    5.6361   11.3138  -23.0065 C   0  0  0  0  0  0  0  0  0  0  0  0
    5.9237   12.4673  -22.6171 O   0  0  0  0  0  0  0  0  0  0  0  0
    4.3854   10.6388  -22.5107 C   0  0  0  0  0  0  0  0  0  0  0  0
    3.5612   11.2785  -21.5618 C   0  0  0  0  0  0  0  0  0  0  0  0
    2.3878   10.6342  -21.1360 C   0  0  0  0  0  0  0  0  0  0  0  0
    2.0671    9.3755  -21.6773 C   0  0  0  0  0  0  0  0  0  0  0  0
    2.9444    8.8061  -22.6320 C   0  0  0  0  0  0  0  0  0  0  0  0
    2.7566    7.5914  -23.2566 O   0  0  0  0  0  0  0  0  0  0  0  0
    1.6338    6.8577  -23.0425 C   0  0  0  0  0  0  0  0  0  0  0  0
    0.5110    7.5224  -23.4189 F   0  0  0  0  0  0  0  0  0  0  0  0
    1.6895    5.7248  -23.7848 F   0  0  0  0  0  0  0  0  0  0  0  0
    1.5229    6.4744  -21.7454 F   0  0  0  0  0  0  0  0  0  0  0  0
    4.0821    9.4190  -23.0195 N   0  0  0  0  0  0  0  0  0  0  0  0
  1  2  2  0
  2  3  1  0
  2  4  1  0
  4  5  2  0
  4 14  1  0
  5  6  1  0
  6  7  2  0
  7  8  1  0
  8  9  1  0
  8 14  2  0
  9 10  1  0
 10 11  1  0
 10 12  1  0
 10 13  1  0
M  CHG  1   3  -1
M  END
>  <s_m_entry_id>  (95) 
63

>  <s_m_entry_name>  (95) 
ZINC000098213922.1

>  <s_m_Source_Path>  (95) 
/home/bhw/schrodinger/schrodinger/0995dock

>  <s_m_Source_File>  (95) 
0995dock_pv.maegz

>  <i_m_Source_File_Index>  (95) 
63

>  <zinc_id>  (95) 
ZINC000098213922

>  <smiles>  (95) 
O=C(O)c1cccc(OC(F)(F)F)n1

>  <chiral flag>  (95) 
0

>  <version>  (95) 
0

>  <i_lp_mmshare_version>  (95) 
44012

>  <s_epik_input>  (95) 
Tz1DKFtPSF0pYzFbY0hdW2NIXVtjSF1jKG4xKU9DKEYpKEYpRg==

>  <s_epik_cmdline>  (95) 
J2VwaWtfcHl0aG9uJywgJy1waCcsICc3LjAnLCAnLXRuJywgJzgnLCAnLW1hJywgJzIwMCcsICctaW1hZScsICc8aW5maWxlLm1hZT4nLCAnLW9tYWUnLCAnPG91dGZpbGUubWFlPic=

>  <r_epik_Ionization_Penalty>  (95) 
0.0001

>  <r_epik_Ionization_Penalty_Charging>  (95) 
0.0001

>  <r_epik_Ionization_Penalty_Neutral>  (95) 
0.0000

>  <r_epik_State_Penalty>  (95) 
0.0000

>  <r_epik_Charging_Adjusted_Penalty>  (95) 
0.000100609976535726

>  <i_epik_Tot_Q>  (95) 
-1

>  <i_epik_Tot_abs_Q>  (95) 
1

>  <i_f3d_flags>  (95) 
0

>  <s_lp_Force_Field>  (95) 
OPLS_2005

>  <r_lp_Energy>  (95) 
4.188931

>  <b_lp_Chiralities_Consistent>  (95) 
1

>  <s_lp_Variant>  (95) 
ZINC000098213922-1

>  <s_m_job_name>  (95) 
zinc0995

>  <s_i_glide_gridfile>  (95) 
zincglide

>  <i_i_glide_lignum>  (95) 
26547

>  <i_i_glide_rotatable_bonds>  (95) 
3

>  <r_i_docking_score>  (95) 
-6.086528401814

>  <r_i_glide_ligand_efficiency>  (95) 
-0.434752028701

>  <r_i_glide_ligand_efficiency_sa>  (95) 
-1.04781423788646

>  <r_i_glide_ligand_efficiency_ln>  (95) 
-1.67255633822551

>  <r_i_glide_gscore>  (95) 
-6.086528401814

>  <r_i_glide_lipo>  (95) 
-0.101740508900008

>  <r_i_glide_hbond>  (95) 
-0.254870264786523

>  <r_i_glide_metal>  (95) 
0

>  <r_i_glide_rewards>  (95) 
-3.91371580470305

>  <r_i_glide_evdw>  (95) 
-16.5745086669922

>  <r_i_glide_ecoul>  (95) 
-8.39549922943115

>  <r_i_glide_erotb>  (95) 
0.271848494339861

>  <r_i_glide_esite>  (95) 
0

>  <r_i_glide_emodel>  (95) 
-40.3327264107279

>  <r_i_glide_energy>  (95) 
-24.9700078964233

>  <r_i_glide_einternal>  (95) 
0.663697123527527

>  <i_i_glide_confnum>  (95) 
1

>  <i_i_glide_posenum>  (95) 
121

>  <r_i_glide_eff_state_penalty>  (95) 
0

>  <r_lp_tautomer_probability>  (95) 
1

>  <s_m_subgroup_title>  (95) 
0995dock_pv

>  <s_m_subgroupid>  (95) 
0995dock_pv

>  <b_m_subgroup_collapsed>  (95) 
0

>  <class>  (95) 
7

>  <isCentroid>  (95) 
flase

$$$$
ZINC000100498598
     RDKit          3D

 14 14  0  0  1  0  0  0  0  0999 V2000
   -0.8763   11.5864  -23.8170 N   0  0  0  0  0  0  0  0  0  0  0  0
   -0.8048   10.4708  -22.8563 C   0  0  0  0  0  0  0  0  0  0  0  0
   -0.5940    9.0995  -23.5387 C   0  0  0  0  0  0  0  0  0  0  0  0
    0.6266    8.9631  -24.4799 C   0  0  0  0  0  0  0  0  0  0  0  0
    2.0049    8.9135  -23.8117 C   0  0  0  0  0  0  0  0  0  0  0  0
    2.9049    8.2405  -24.3118 O   0  0  0  0  0  0  0  0  0  0  0  0
    2.0894    9.7439  -22.7344 O   0  0  0  0  0  0  0  0  0  0  0  0
    3.2625   10.1782  -22.0160 C   0  0  2  0  0  0  0  0  0  0  0  0
    3.7653   11.5182  -22.5455 C   0  0  0  0  0  0  0  0  0  0  0  0
    5.2147   11.2479  -22.9155 C   0  0  0  0  0  0  0  0  0  0  0  0
    5.9237   12.1136  -23.4170 O   0  0  0  0  0  0  0  0  0  0  0  0
    5.5237    9.9767  -22.6169 N   0  0  0  0  0  0  0  0  0  0  0  0
    4.4953    9.2761  -22.0999 C   0  0  0  0  0  0  0  0  0  0  0  0
    4.4745    8.1135  -21.7012 O   0  0  0  0  0  0  0  0  0  0  0  0
  1  2  1  0
  2  3  1  0
  3  4  1  0
  4  5  1  0
  5  6  2  0
  5  7  1  0
  8  7  1  6
  8  9  1  0
  8 13  1  0
  9 10  1  0
 10 11  2  0
 10 12  1  0
 12 13  1  0
 13 14  2  0
M  CHG  2   1   1  12  -1
M  END
>  <s_m_entry_id>  (96) 
93

>  <s_m_entry_name>  (96) 
ZINC000100498598.1

>  <s_m_Source_Path>  (96) 
/home/bhw/schrodinger/schrodinger/0995dock

>  <s_m_Source_File>  (96) 
0995dock_pv.maegz

>  <i_m_Source_File_Index>  (96) 
93

>  <zinc_id>  (96) 
ZINC000100498598

>  <smiles>  (96) 
NCCCC(=O)O[C@@H]1CC(=O)NC1=O

>  <chiral flag>  (96) 
0

>  <version>  (96) 
0

>  <i_lp_mmshare_version>  (96) 
44012

>  <s_epik_input>  (96) 
W05IMl1bQ0gyXVtDSDJdW0NIMl1DKD1PKU9bQ0BASF0xW0NIMl1DKD1PKVtOSF1DMT1P

>  <s_epik_cmdline>  (96) 
J2VwaWtfcHl0aG9uJywgJy1waCcsICc3LjAnLCAnLXRuJywgJzgnLCAnLW1hJywgJzIwMCcsICctaW1hZScsICc8aW5maWxlLm1hZT4nLCAnLW9tYWUnLCAnPG91dGZpbGUubWFlPic=

>  <r_epik_Ionization_Penalty>  (96) 
0.8245

>  <r_epik_Ionization_Penalty_Charging>  (96) 
0.8245

>  <r_epik_Ionization_Penalty_Neutral>  (96) 
0.0000

>  <r_epik_State_Penalty>  (96) 
0.8566

>  <r_epik_Charging_Adjusted_Penalty>  (96) 
1.68109377900492

>  <i_epik_Tot_Q>  (96) 
0

>  <i_epik_Tot_abs_Q>  (96) 
2

>  <s_epik_Chemistry_Notes>  (96) 
This compound has an ester and may undergo hydrolysis at high or low pH.

>  <i_f3d_flags>  (96) 
0

>  <s_lp_Force_Field>  (96) 
OPLS_2005

>  <r_lp_Energy>  (96) 
-3.01863

>  <b_lp_Chiralities_Consistent>  (96) 
1

>  <s_lp_Variant>  (96) 
ZINC000100498598-2

>  <s_m_job_name>  (96) 
zinc0995

>  <s_i_glide_gridfile>  (96) 
zincglide

>  <i_i_glide_lignum>  (96) 
26753

>  <i_i_glide_rotatable_bonds>  (96) 
5

>  <r_i_docking_score>  (96) 
-5.94761081413289

>  <r_i_glide_ligand_efficiency>  (96) 
-0.424829343866635

>  <r_i_glide_ligand_efficiency_sa>  (96) 
-1.0238991558141

>  <r_i_glide_ligand_efficiency_ln>  (96) 
-1.6343822796443

>  <r_i_glide_gscore>  (96) 
-6.80421081413289

>  <r_i_glide_lipo>  (96) 
0

>  <r_i_glide_hbond>  (96) 
-0.629261028423955

>  <r_i_glide_metal>  (96) 
0

>  <r_i_glide_rewards>  (96) 
-3.44610929664691

>  <r_i_glide_evdw>  (96) 
-15.2031650543213

>  <r_i_glide_ecoul>  (96) 
-17.9971561431885

>  <r_i_glide_erotb>  (96) 
0.856130521946118

>  <r_i_glide_esite>  (96) 
-0.125239336813807

>  <r_i_glide_emodel>  (96) 
-53.4595418737517

>  <r_i_glide_energy>  (96) 
-33.2003211975098

>  <r_i_glide_einternal>  (96) 
6.74089860916138

>  <i_i_glide_confnum>  (96) 
3

>  <i_i_glide_posenum>  (96) 
206

>  <r_i_glide_eff_state_penalty>  (96) 
0.8566

>  <r_lp_tautomer_probability>  (96) 
0.999999999795

>  <s_m_subgroup_title>  (96) 
0995dock_pv

>  <s_m_subgroupid>  (96) 
0995dock_pv

>  <b_m_subgroup_collapsed>  (96) 
0

>  <class>  (96) 
2

>  <isCentroid>  (96) 
flase

$$$$
ZINC000136658374
     RDKit          3D

 17 18  0  0  1  0  0  0  0  0999 V2000
    3.1237   14.6019  -19.1988 C   0  0  0  0  0  0  0  0  0  0  0  0
    4.0736   15.1949  -20.2504 C   0  0  2  0  0  0  0  0  0  0  0  0
    3.9237   16.6035  -20.2170 O   0  0  0  0  0  0  0  0  0  0  0  0
    3.7921   14.6982  -21.6894 C   0  0  1  0  0  0  0  0  0  0  0  0
    4.7218   15.3549  -22.5209 O   0  0  0  0  0  0  0  0  0  0  0  0
    3.9263   13.1894  -21.8666 C   0  0  0  0  0  0  0  0  0  0  0  0
    4.8768   12.4345  -21.2792 C   0  0  0  0  0  0  0  0  0  0  0  0
    4.8946   11.0554  -21.4170 N   0  0  0  0  0  0  0  0  0  0  0  0
    3.8594   10.4395  -22.1148 C   0  0  0  0  0  0  0  0  0  0  0  0
    2.8847   11.1706  -22.7131 C   0  0  0  0  0  0  0  0  0  0  0  0
    1.8896   10.5135  -23.4170 N   0  0  0  0  0  0  0  0  0  0  0  0
    1.9002    9.1294  -23.4965 C   0  0  0  0  0  0  0  0  0  0  0  0
    0.8854    8.5906  -24.2528 N   0  0  0  0  0  0  0  0  0  0  0  0
    2.7958    8.3774  -22.9361 N   0  0  0  0  0  0  0  0  0  0  0  0
    3.8403    8.9699  -22.2170 C   0  0  0  0  0  0  0  0  0  0  0  0
    4.7237    8.2774  -21.7187 O   0  0  0  0  0  0  0  0  0  0  0  0
    2.9340   12.5644  -22.6214 N   0  0  0  0  0  0  0  0  0  0  0  0
  2  1  1  1
  2  3  1  0
  2  4  1  0
  4  5  1  6
  4  6  1  0
  6  7  2  0
  6 17  1  0
  7  8  1  0
  8  9  1  0
  9 10  2  0
  9 15  1  0
 10 11  1  0
 10 17  1  0
 11 12  1  0
 12 13  1  0
 12 14  2  0
 14 15  1  0
 15 16  2  0
M  END
>  <s_m_entry_id>  (97) 
53

>  <s_m_entry_name>  (97) 
ZINC000136658374.1

>  <s_m_Source_Path>  (97) 
/home/bhw/schrodinger/schrodinger/0995dock

>  <s_m_Source_File>  (97) 
0995dock_pv.maegz

>  <i_m_Source_File_Index>  (97) 
53

>  <zinc_id>  (97) 
ZINC000136658374

>  <smiles>  (97) 
C[C@H](O)[C@@H](O)[C@@H]1C=Nc2c([nH]c(N)nc2=O)N1

>  <chiral flag>  (97) 
0

>  <version>  (97) 
0

>  <i_lp_mmshare_version>  (97) 
44012

>  <s_epik_input>  (97) 
W0NIM11bQ0BIXShbT0hdKVtDQEBIXShbT0hdKVtDQEhdKFtDSF09TjEpW05IXWMoYzEyKVtuSF1jKFtOSDJdKW5jMj1P

>  <s_epik_cmdline>  (97) 
J2VwaWtfcHl0aG9uJywgJy1waCcsICc3LjAnLCAnLXRuJywgJzgnLCAnLW1hJywgJzIwMCcsICctaW1hZScsICc8aW5maWxlLm1hZT4nLCAnLW9tYWUnLCAnPG91dGZpbGUubWFlPic=

>  <r_epik_Ionization_Penalty>  (97) 
0.2299

>  <r_epik_Ionization_Penalty_Charging>  (97) 
0.2241

>  <r_epik_Ionization_Penalty_Neutral>  (97) 
0.0058

>  <r_epik_State_Penalty>  (97) 
0.0189

>  <r_epik_Charging_Adjusted_Penalty>  (97) 
0.242927928664591

>  <i_epik_Tot_Q>  (97) 
0

>  <i_epik_Tot_abs_Q>  (97) 
0

>  <s_epik_Chemistry_Notes>  (97) 
This compound has an imine and may undergo hydrolysis.

>  <i_f3d_flags>  (97) 
0

>  <s_lp_Force_Field>  (97) 
OPLS_2005

>  <r_lp_Energy>  (97) 
24.249917

>  <b_lp_Chiralities_Consistent>  (97) 
1

>  <s_lp_Variant>  (97) 
ZINC000136658374-1

>  <s_m_job_name>  (97) 
zinc0995

>  <s_i_glide_gridfile>  (97) 
zincglide

>  <i_i_glide_lignum>  (97) 
27778

>  <i_i_glide_rotatable_bonds>  (97) 
4

>  <r_i_docking_score>  (97) 
-6.13973813594615

>  <r_i_glide_ligand_efficiency>  (97) 
-0.361161066820362

>  <r_i_glide_ligand_efficiency_sa>  (97) 
-0.928646801500666

>  <r_i_glide_ligand_efficiency_ln>  (97) 
-1.60172095442233

>  <r_i_glide_gscore>  (97) 
-6.15863813594615

>  <r_i_glide_lipo>  (97) 
-0.0379216766796885

>  <r_i_glide_hbond>  (97) 
-0.682713230822967

>  <r_i_glide_metal>  (97) 
0

>  <r_i_glide_rewards>  (97) 
-1.77796895454545

>  <r_i_glide_evdw>  (97) 
-17.6945991516113

>  <r_i_glide_ecoul>  (97) 
-20.9479331970215

>  <r_i_glide_erotb>  (97) 
0.603785126820754

>  <r_i_glide_esite>  (97) 
-0.236899463585002

>  <r_i_glide_emodel>  (97) 
-52.6450014705957

>  <r_i_glide_energy>  (97) 
-38.6425323486328

>  <r_i_glide_einternal>  (97) 
6.38846302032471

>  <i_i_glide_confnum>  (97) 
6

>  <i_i_glide_posenum>  (97) 
227

>  <r_i_glide_eff_state_penalty>  (97) 
0.0189

>  <s_m_subgroup_title>  (97) 
0995dock_pv

>  <s_m_subgroupid>  (97) 
0995dock_pv

>  <b_m_subgroup_collapsed>  (97) 
0

>  <class>  (97) 
7

>  <isCentroid>  (97) 
flase

$$$$
ZINC000165378666
     RDKit          3D

 23 24  0  0  1  0  0  0  0  0999 V2000
   -2.1608    3.9595  -22.2252 C   0  0  0  0  0  0  0  0  0  0  0  0
   -0.7287    3.5077  -21.8850 C   0  0  0  0  0  0  0  0  0  0  0  0
   -0.6818    3.0396  -20.4131 C   0  0  0  0  0  0  0  0  0  0  0  0
   -0.3845    2.2845  -22.7600 C   0  0  0  0  0  0  0  0  0  0  0  0
    0.2340    4.6885  -22.1171 C   0  0  0  0  0  0  0  0  0  0  0  0
    0.2212    5.7881  -21.2271 C   0  0  0  0  0  0  0  0  0  0  0  0
    1.0814    6.8829  -21.4124 C   0  0  0  0  0  0  0  0  0  0  0  0
    1.9664    6.9251  -22.5113 C   0  0  0  0  0  0  0  0  0  0  0  0
    2.9133    8.0340  -22.7100 C   0  0  0  0  0  0  0  0  0  0  0  0
    3.2095    8.9895  -21.8051 C   0  0  0  0  0  0  0  0  0  0  0  0
    4.1636   10.0877  -22.0448 C   0  0  0  0  0  0  0  0  0  0  0  0
    4.1844   11.2499  -21.1454 C   0  0  0  0  0  0  0  0  0  0  0  0
    5.1044   12.2419  -21.4148 C   0  0  0  0  0  0  0  0  0  0  0  0
    5.2508   13.4830  -20.5234 C   0  0  0  0  0  0  0  0  0  0  0  0
    5.0439   14.5907  -21.2377 F   0  0  0  0  0  0  0  0  0  0  0  0
    4.3801   13.4708  -19.5115 F   0  0  0  0  0  0  0  0  0  0  0  0
    6.4833   13.5448  -20.0175 F   0  0  0  0  0  0  0  0  0  0  0  0
    5.9237   12.1474  -22.4933 N   0  0  0  0  0  0  0  0  0  0  0  0
    5.9228   11.0369  -23.2832 C   0  0  0  0  0  0  0  0  0  0  0  0
    6.7056   10.9135  -24.2157 O   0  0  0  0  0  0  0  0  0  0  0  0
    5.0001   10.0152  -23.0170 N   0  0  0  0  0  0  0  0  0  0  0  0
    1.9717    5.8440  -23.4164 C   0  0  0  0  0  0  0  0  0  0  0  0
    1.1233    4.7384  -23.2214 C   0  0  0  0  0  0  0  0  0  0  0  0
  1  2  1  0
  2  3  1  0
  2  4  1  0
  2  5  1  0
  5  6  2  0
  5 23  1  0
  6  7  1  0
  7  8  2  0
  8  9  1  0
  8 22  1  0
  9 10  2  0
 10 11  1  0
 11 12  1  0
 11 21  2  0
 12 13  2  0
 13 14  1  0
 13 18  1  0
 14 15  1  0
 14 16  1  0
 14 17  1  0
 18 19  1  0
 19 20  2  0
 19 21  1  0
 22 23  2  0
M  CHG  1  18  -1
M  END
>  <s_m_entry_id>  (98) 
108

>  <s_m_entry_name>  (98) 
ZINC000165378666.1

>  <s_m_Source_Path>  (98) 
/home/bhw/schrodinger/schrodinger/0995dock

>  <s_m_Source_File>  (98) 
0995dock_pv.maegz

>  <i_m_Source_File_Index>  (98) 
108

>  <zinc_id>  (98) 
ZINC000165378666

>  <smiles>  (98) 
CC(C)(C)c1ccc(/C=C/c2cc(C(F)(F)F)[nH]c(=O)n2)cc1

>  <chiral flag>  (98) 
0

>  <version>  (98) 
0

>  <i_lp_mmshare_version>  (98) 
44012

>  <s_epik_input>  (98) 
W0NIM11DKFtDSDNdKShbQ0gzXSljMVtjSF1bY0hdYyhbY0hdW2NIXTEpL1tDSF09W0NIXS9jMltjSF1jKEMoRikoRilGKVtuSF1jKD1PKW4y

>  <s_epik_cmdline>  (98) 
J2VwaWtfcHl0aG9uJywgJy1waCcsICc3LjAnLCAnLXRuJywgJzgnLCAnLW1hJywgJzIwMCcsICctaW1hZScsICc8aW5maWxlLm1hZT4nLCAnLW9tYWUnLCAnPG91dGZpbGUubWFlPic=

>  <r_epik_Ionization_Penalty>  (98) 
0.2467

>  <r_epik_Ionization_Penalty_Charging>  (98) 
0.0242

>  <r_epik_Ionization_Penalty_Neutral>  (98) 
0.2225

>  <r_epik_State_Penalty>  (98) 
0.2248

>  <r_epik_Charging_Adjusted_Penalty>  (98) 
0.248953285966449

>  <i_epik_Tot_Q>  (98) 
-1

>  <i_epik_Tot_abs_Q>  (98) 
1

>  <i_f3d_flags>  (98) 
0

>  <s_lp_Force_Field>  (98) 
OPLS_2005

>  <r_lp_Energy>  (98) 
34.865029

>  <b_lp_Chiralities_Consistent>  (98) 
1

>  <s_lp_Variant>  (98) 
ZINC000165378666-1

>  <s_m_job_name>  (98) 
zinc0995

>  <s_i_glide_gridfile>  (98) 
zincglide

>  <i_i_glide_lignum>  (98) 
27903

>  <i_i_glide_rotatable_bonds>  (98) 
4

>  <r_i_docking_score>  (98) 
-5.9104008575545

>  <r_i_glide_ligand_efficiency>  (98) 
-0.256973950328456

>  <r_i_glide_ligand_efficiency_sa>  (98) 
-0.730799731257307

>  <r_i_glide_ligand_efficiency_ln>  (98) 
-1.42918851990863

>  <r_i_glide_gscore>  (98) 
-6.1352008575545

>  <r_i_glide_lipo>  (98) 
-1.07935464010982

>  <r_i_glide_hbond>  (98) 
-0.492439035990474

>  <r_i_glide_metal>  (98) 
0

>  <r_i_glide_rewards>  (98) 
-2.34611856376329

>  <r_i_glide_evdw>  (98) 
-26.8348064422607

>  <r_i_glide_ecoul>  (98) 
-6.774977684021

>  <r_i_glide_erotb>  (98) 
0.253367878462417

>  <r_i_glide_esite>  (98) 
-0.112669521437144

>  <r_i_glide_emodel>  (98) 
-47.1684711433726

>  <r_i_glide_energy>  (98) 
-33.6097841262817

>  <r_i_glide_einternal>  (98) 
4.39797115325928

>  <i_i_glide_confnum>  (98) 
7

>  <i_i_glide_posenum>  (98) 
387

>  <r_i_glide_eff_state_penalty>  (98) 
0.2248

>  <s_m_subgroup_title>  (98) 
0995dock_pv

>  <s_m_subgroupid>  (98) 
0995dock_pv

>  <b_m_subgroup_collapsed>  (98) 
0

>  <class>  (98) 
7

>  <isCentroid>  (98) 
flase

$$$$
ZINC000169805887
     RDKit          3D

 16 16  0  0  1  0  0  0  0  0999 V2000
    6.3240   10.5135  -23.5866 O   0  0  0  0  0  0  0  0  0  0  0  0
    5.5587   11.3221  -23.0193 C   0  0  0  0  0  0  0  0  0  0  0  0
    5.9017   12.5132  -22.8440 O   0  0  0  0  0  0  0  0  0  0  0  0
    4.1886   10.8620  -22.5979 C   0  0  0  0  0  0  0  0  0  0  0  0
    3.2793   11.7774  -22.0253 C   0  0  0  0  0  0  0  0  0  0  0  0
    1.9903   11.3337  -21.6855 C   0  0  0  0  0  0  0  0  0  0  0  0
    1.6512    9.9898  -21.9221 C   0  0  0  0  0  0  0  0  0  0  0  0
    2.6201    9.1378  -22.4940 C   0  0  0  0  0  0  0  0  0  0  0  0
    2.3087    7.6730  -22.7910 C   0  0  0  0  0  0  0  0  0  0  0  0
    3.3266    6.9139  -22.3803 F   0  0  0  0  0  0  0  0  0  0  0  0
    1.2271    7.2893  -22.1082 F   0  0  0  0  0  0  0  0  0  0  0  0
    2.0561    7.3967  -24.2869 C   0  0  0  0  0  0  0  0  0  0  0  0
    3.1236    7.7141  -25.0170 F   0  0  0  0  0  0  0  0  0  0  0  0
    1.7941    6.1025  -24.4669 F   0  0  0  0  0  0  0  0  0  0  0  0
    1.0197    8.1109  -24.7270 F   0  0  0  0  0  0  0  0  0  0  0  0
    3.8618    9.5640  -22.8184 N   0  0  0  0  0  0  0  0  0  0  0  0
  1  2  2  0
  2  3  1  0
  2  4  1  0
  4  5  2  0
  4 16  1  0
  5  6  1  0
  6  7  2  0
  7  8  1  0
  8  9  1  0
  8 16  2  0
  9 10  1  0
  9 11  1  0
  9 12  1  0
 12 13  1  0
 12 14  1  0
 12 15  1  0
M  CHG  1   3  -1
M  END
>  <s_m_entry_id>  (99) 
112

>  <s_m_entry_name>  (99) 
ZINC000169805887.1

>  <s_m_Source_Path>  (99) 
/home/bhw/schrodinger/schrodinger/0995dock

>  <s_m_Source_File>  (99) 
0995dock_pv.maegz

>  <i_m_Source_File_Index>  (99) 
112

>  <zinc_id>  (99) 
ZINC000169805887

>  <smiles>  (99) 
O=C(O)c1cccc(C(F)(F)C(F)(F)F)n1

>  <chiral flag>  (99) 
0

>  <version>  (99) 
0

>  <i_lp_mmshare_version>  (99) 
44012

>  <s_epik_input>  (99) 
Tz1DKFtPSF0pYzFbY0hdW2NIXVtjSF1jKG4xKUMoRikoRilDKEYpKEYpRg==

>  <s_epik_cmdline>  (99) 
J2VwaWtfcHl0aG9uJywgJy1waCcsICc3LjAnLCAnLXRuJywgJzgnLCAnLW1hJywgJzIwMCcsICctaW1hZScsICc8aW5maWxlLm1hZT4nLCAnLW9tYWUnLCAnPG91dGZpbGUubWFlPic=

>  <r_epik_Ionization_Penalty>  (99) 
0.0001

>  <r_epik_Ionization_Penalty_Charging>  (99) 
0.0001

>  <r_epik_Ionization_Penalty_Neutral>  (99) 
0.0000

>  <r_epik_State_Penalty>  (99) 
0.0000

>  <r_epik_Charging_Adjusted_Penalty>  (99) 
7.28871901855266e-05

>  <i_epik_Tot_Q>  (99) 
-1

>  <i_epik_Tot_abs_Q>  (99) 
1

>  <i_f3d_flags>  (99) 
0

>  <s_lp_Force_Field>  (99) 
OPLS_2005

>  <r_lp_Energy>  (99) 
5.557811

>  <b_lp_Chiralities_Consistent>  (99) 
1

>  <s_lp_Variant>  (99) 
ZINC000169805887-1

>  <s_m_job_name>  (99) 
zinc0995

>  <s_i_glide_gridfile>  (99) 
zincglide

>  <i_i_glide_lignum>  (99) 
28169

>  <i_i_glide_rotatable_bonds>  (99) 
3

>  <r_i_docking_score>  (99) 
-5.89556380970965

>  <r_i_glide_ligand_efficiency>  (99) 
-0.368472738106853

>  <r_i_glide_ligand_efficiency_sa>  (99) 
-0.92849311724834

>  <r_i_glide_ligand_efficiency_ln>  (99) 
-1.56273695432389

>  <r_i_glide_gscore>  (99) 
-5.89556380970965

>  <r_i_glide_lipo>  (99) 
-0.24694153916217

>  <r_i_glide_hbond>  (99) 
-0.203611794506714

>  <r_i_glide_metal>  (99) 
0

>  <r_i_glide_rewards>  (99) 
-3.48184310836374

>  <r_i_glide_evdw>  (99) 
-17.1796398162842

>  <r_i_glide_ecoul>  (99) 
-8.65151786804199

>  <r_i_glide_erotb>  (99) 
0.210011913928489

>  <r_i_glide_esite>  (99) 
-0.0164696105850021

>  <r_i_glide_emodel>  (99) 
-40.703139097784

>  <r_i_glide_energy>  (99) 
-25.8311576843262

>  <r_i_glide_einternal>  (99) 
0.0237811151891947

>  <i_i_glide_confnum>  (99) 
3

>  <i_i_glide_posenum>  (99) 
327

>  <r_i_glide_eff_state_penalty>  (99) 
0

>  <r_lp_tautomer_probability>  (99) 
1

>  <s_m_subgroup_title>  (99) 
0995dock_pv

>  <s_m_subgroupid>  (99) 
0995dock_pv

>  <b_m_subgroup_collapsed>  (99) 
0

>  <class>  (99) 
7

>  <isCentroid>  (99) 
flase

$$$$
ZINC000217574633
     RDKit          3D

 13 13  0  0  1  0  0  0  0  0999 V2000
    5.9209   12.6372  -23.0174 O   0  0  0  0  0  0  0  0  0  0  0  0
    5.5542   11.4428  -22.9388 C   0  0  0  0  0  0  0  0  0  0  0  0
    6.2394   10.5132  -23.4179 O   0  0  0  0  0  0  0  0  0  0  0  0
    4.2025   11.1700  -22.2519 C   0  0  0  0  0  0  0  0  0  0  0  0
    4.1791   11.8632  -21.1108 F   0  0  0  0  0  0  0  0  0  0  0  0
    3.2253   11.6510  -23.0183 F   0  0  0  0  0  0  0  0  0  0  0  0
    3.8381    9.3936  -21.8084 S   0  0  0  0  0  0  0  0  0  0  0  0
    5.0906    8.5113  -21.8172 O   0  0  0  0  0  0  0  0  0  0  0  0
    2.7149    8.8824  -23.1544 C   0  0  0  0  0  0  0  0  0  0  0  0
    3.1239    8.3570  -24.3167 N   0  0  0  0  0  0  0  0  0  0  0  0
    1.9968    8.1079  -25.0135 C   0  0  0  0  0  0  0  0  0  0  0  0
    0.8711    8.4520  -24.1963 C   0  0  0  0  0  0  0  0  0  0  0  0
    1.3745    8.9092  -23.0439 N   0  0  0  0  0  0  0  0  0  0  0  0
  1  2  2  0
  2  3  1  0
  2  4  1  0
  4  5  1  0
  4  6  1  0
  4  7  1  0
  7  8  2  0
  7  9  1  0
  9 10  2  0
  9 13  1  0
 10 11  1  0
 11 12  2  0
 12 13  1  0
M  CHG  2   3  -1  13  -1
M  END
>  <s_m_entry_id>  (100) 
58

>  <s_m_entry_name>  (100) 
ZINC000217574633.1

>  <s_m_Source_Path>  (100) 
/home/bhw/schrodinger/schrodinger/0995dock

>  <s_m_Source_File>  (100) 
0995dock_pv.maegz

>  <i_m_Source_File_Index>  (100) 
58

>  <zinc_id>  (100) 
ZINC000217574633

>  <smiles>  (100) 
O=C(O)C(F)(F)[S@@](=O)c1ncc[nH]1

>  <chiral flag>  (100) 
0

>  <version>  (100) 
0

>  <i_lp_mmshare_version>  (100) 
44012

>  <s_epik_input>  (100) 
Tz1DKFtPSF0pQyhGKShGKVtTQEBdKD1PKWMxbltjSF1bY0hdW25IXTE=

>  <s_epik_cmdline>  (100) 
J2VwaWtfcHl0aG9uJywgJy1waCcsICc3LjAnLCAnLXRuJywgJzgnLCAnLW1hJywgJzIwMCcsICctaW1hZScsICc8aW5maWxlLm1hZT4nLCAnLW9tYWUnLCAnPG91dGZpbGUubWFlPic=

>  <r_epik_Ionization_Penalty>  (100) 
0.4512

>  <r_epik_Ionization_Penalty_Charging>  (100) 
0.4512

>  <r_epik_Ionization_Penalty_Neutral>  (100) 
0.0000

>  <r_epik_State_Penalty>  (100) 
0.4540

>  <r_epik_Charging_Adjusted_Penalty>  (100) 
0.905188214955734

>  <i_epik_Tot_Q>  (100) 
-2

>  <i_epik_Tot_abs_Q>  (100) 
2

>  <i_f3d_flags>  (100) 
0

>  <s_lp_Force_Field>  (100) 
OPLS_2005

>  <r_lp_Energy>  (100) 
32.01209

>  <b_lp_Chiralities_Consistent>  (100) 
1

>  <s_lp_Variant>  (100) 
ZINC000217574633-4

>  <s_m_job_name>  (100) 
zinc0995

>  <s_i_glide_gridfile>  (100) 
zincglide

>  <i_i_glide_lignum>  (100) 
28667

>  <i_i_glide_rotatable_bonds>  (100) 
3

>  <r_i_docking_score>  (100) 
-6.10741408349715

>  <r_i_glide_ligand_efficiency>  (100) 
-0.469801083345935

>  <r_i_glide_ligand_efficiency_sa>  (100) 
-1.10465958265562

>  <r_i_glide_ligand_efficiency_ln>  (100) 
-1.71318396731616

>  <r_i_glide_gscore>  (100) 
-6.56141408349715

>  <r_i_glide_lipo>  (100) 
-0.272683991198003

>  <r_i_glide_hbond>  (100) 
-0.44017228043695

>  <r_i_glide_metal>  (100) 
0

>  <r_i_glide_rewards>  (100) 
-2.88377673608714

>  <r_i_glide_evdw>  (100) 
-17.8636932373047

>  <r_i_glide_ecoul>  (100) 
-14.8605947494507

>  <r_i_glide_erotb>  (100) 
0.267391292389924

>  <r_i_glide_esite>  (100) 
-0.109898493882146

>  <r_i_glide_emodel>  (100) 
-49.19979289983

>  <r_i_glide_energy>  (100) 
-32.7242879867554

>  <r_i_glide_einternal>  (100) 
1.25525391101837

>  <i_i_glide_confnum>  (100) 
1

>  <i_i_glide_posenum>  (100) 
310

>  <r_i_glide_eff_state_penalty>  (100) 
0.454

>  <s_m_subgroup_title>  (100) 
0995dock_pv

>  <s_m_subgroupid>  (100) 
0995dock_pv

>  <b_m_subgroup_collapsed>  (100) 
0

>  <class>  (100) 
9

>  <isCentroid>  (100) 
flase

$$$$
ZINC000217574709
     RDKit          3D

 13 13  0  0  1  0  0  0  0  0999 V2000
    5.9209   12.6372  -23.0174 O   0  0  0  0  0  0  0  0  0  0  0  0
    5.5542   11.4428  -22.9388 C   0  0  0  0  0  0  0  0  0  0  0  0
    6.2394   10.5132  -23.4179 O   0  0  0  0  0  0  0  0  0  0  0  0
    4.2025   11.1700  -22.2519 C   0  0  0  0  0  0  0  0  0  0  0  0
    4.1791   11.8632  -21.1108 F   0  0  0  0  0  0  0  0  0  0  0  0
    3.2253   11.6510  -23.0183 F   0  0  0  0  0  0  0  0  0  0  0  0
    3.8381    9.3936  -21.8084 S   0  0  0  0  0  0  0  0  0  0  0  0
    5.0906    8.5113  -21.8172 O   0  0  0  0  0  0  0  0  0  0  0  0
    2.7149    8.8824  -23.1544 C   0  0  0  0  0  0  0  0  0  0  0  0
    3.1239    8.3570  -24.3167 N   0  0  0  0  0  0  0  0  0  0  0  0
    1.9968    8.1079  -25.0135 C   0  0  0  0  0  0  0  0  0  0  0  0
    0.8711    8.4520  -24.1963 C   0  0  0  0  0  0  0  0  0  0  0  0
    1.3745    8.9092  -23.0439 N   0  0  0  0  0  0  0  0  0  0  0  0
  1  2  2  0
  2  3  1  0
  2  4  1  0
  4  5  1  0
  4  6  1  0
  4  7  1  0
  7  8  2  0
  7  9  1  0
  9 10  2  0
  9 13  1  0
 10 11  1  0
 11 12  2  0
 12 13  1  0
M  CHG  2   3  -1  13  -1
M  END
>  <s_m_entry_id>  (101) 
59

>  <s_m_entry_name>  (101) 
ZINC000217574709.1

>  <s_m_Source_Path>  (101) 
/home/bhw/schrodinger/schrodinger/0995dock

>  <s_m_Source_File>  (101) 
0995dock_pv.maegz

>  <i_m_Source_File_Index>  (101) 
59

>  <zinc_id>  (101) 
ZINC000217574709

>  <smiles>  (101) 
O=C(O)C(F)(F)[S@](=O)c1ncc[nH]1

>  <chiral flag>  (101) 
0

>  <version>  (101) 
0

>  <i_lp_mmshare_version>  (101) 
44012

>  <s_epik_input>  (101) 
Tz1DKFtPSF0pQyhGKShGKVtTQF0oPU8pYzFuW2NIXVtjSF1bbkhdMQ==

>  <s_epik_cmdline>  (101) 
J2VwaWtfcHl0aG9uJywgJy1waCcsICc3LjAnLCAnLXRuJywgJzgnLCAnLW1hJywgJzIwMCcsICctaW1hZScsICc8aW5maWxlLm1hZT4nLCAnLW9tYWUnLCAnPG91dGZpbGUubWFlPic=

>  <r_epik_Ionization_Penalty>  (101) 
0.4512

>  <r_epik_Ionization_Penalty_Charging>  (101) 
0.4512

>  <r_epik_Ionization_Penalty_Neutral>  (101) 
0.0000

>  <r_epik_State_Penalty>  (101) 
0.4540

>  <r_epik_Charging_Adjusted_Penalty>  (101) 
0.905188214955736

>  <i_epik_Tot_Q>  (101) 
-2

>  <i_epik_Tot_abs_Q>  (101) 
2

>  <i_f3d_flags>  (101) 
0

>  <s_lp_Force_Field>  (101) 
OPLS_2005

>  <r_lp_Energy>  (101) 
32.01209

>  <b_lp_Chiralities_Consistent>  (101) 
1

>  <s_lp_Variant>  (101) 
ZINC000217574709-3

>  <s_m_job_name>  (101) 
zinc0995

>  <s_i_glide_gridfile>  (101) 
zincglide

>  <i_i_glide_lignum>  (101) 
28670

>  <i_i_glide_rotatable_bonds>  (101) 
3

>  <r_i_docking_score>  (101) 
-6.10741408349715

>  <r_i_glide_ligand_efficiency>  (101) 
-0.469801083345935

>  <r_i_glide_ligand_efficiency_sa>  (101) 
-1.10465958265562

>  <r_i_glide_ligand_efficiency_ln>  (101) 
-1.71318396731616

>  <r_i_glide_gscore>  (101) 
-6.56141408349715

>  <r_i_glide_lipo>  (101) 
-0.272683991198003

>  <r_i_glide_hbond>  (101) 
-0.44017228043695

>  <r_i_glide_metal>  (101) 
0

>  <r_i_glide_rewards>  (101) 
-2.88377673608714

>  <r_i_glide_evdw>  (101) 
-17.8636932373047

>  <r_i_glide_ecoul>  (101) 
-14.8605947494507

>  <r_i_glide_erotb>  (101) 
0.267391292389924

>  <r_i_glide_esite>  (101) 
-0.109898493882146

>  <r_i_glide_emodel>  (101) 
-49.19979289983

>  <r_i_glide_energy>  (101) 
-32.7242879867554

>  <r_i_glide_einternal>  (101) 
1.25525391101837

>  <i_i_glide_confnum>  (101) 
1

>  <i_i_glide_posenum>  (101) 
310

>  <r_i_glide_eff_state_penalty>  (101) 
0.454

>  <s_m_subgroup_title>  (101) 
0995dock_pv

>  <s_m_subgroupid>  (101) 
0995dock_pv

>  <b_m_subgroup_collapsed>  (101) 
0

>  <class>  (101) 
9

>  <isCentroid>  (101) 
flase

$$$$
ZINC000226929741
     RDKit          3D

 27 30  0  0  1  0  0  0  0  0999 V2000
    6.3235   11.7122  -23.4420 O   0  0  0  0  0  0  0  0  0  0  0  0
    5.4010   11.1056  -22.9086 C   0  0  0  0  0  0  0  0  0  0  0  0
    4.2706   11.7953  -22.6183 N   0  0  0  0  0  0  0  0  0  0  0  0
    3.0799   11.2244  -22.2168 N   0  0  0  0  0  0  0  0  0  0  0  0
    3.0374    9.9464  -22.0094 C   0  0  0  0  0  0  0  0  0  0  0  0
    1.4907    9.1352  -21.5778 S   0  0  0  0  0  0  0  0  0  0  0  0
    1.5267    7.4946  -22.2315 C   0  0  0  0  0  0  0  0  0  0  0  0
    1.8525    7.3343  -23.5365 N   0  0  0  0  0  0  0  0  0  0  0  0
    1.8091    6.1059  -24.0599 C   0  0  0  0  0  0  0  0  0  0  0  0
    1.3962    4.9655  -23.4944 N   0  0  0  0  0  0  0  0  0  0  0  0
    1.0295    5.1557  -22.1951 C   0  0  0  0  0  0  0  0  0  0  0  0
    1.0925    6.3806  -21.4807 C   0  0  0  0  0  0  0  0  0  0  0  0
    0.6619    6.2207  -20.1726 N   0  0  0  0  0  0  0  0  0  0  0  0
    0.3259    4.9318  -20.1631 C   0  0  0  0  0  0  0  0  0  0  0  0
    0.4749    4.2471  -21.3149 N   0  0  0  0  0  0  0  0  0  0  0  0
    0.0939    2.8416  -21.6313 C   0  0  1  0  0  0  0  0  0  0  0  0
   -0.0771    2.1399  -20.4500 O   0  0  0  0  0  0  0  0  0  0  0  0
   -0.8126    0.9696  -20.7779 C   0  0  1  0  0  0  0  0  0  0  0  0
   -1.3754    0.3530  -19.4875 C   0  0  0  0  0  0  0  0  0  0  0  0
   -1.8588   -0.9508  -19.7318 O   0  0  0  0  0  0  0  0  0  0  0  0
   -1.8690    1.4699  -21.7846 C   0  0  2  0  0  0  0  0  0  0  0  0
   -2.0761    0.5342  -22.8282 O   0  0  0  0  0  0  0  0  0  0  0  0
   -1.2556    2.7504  -22.3586 C   0  0  1  0  0  0  0  0  0  0  0  0
   -2.1006    3.8672  -22.1361 O   0  0  0  0  0  0  0  0  0  0  0  0
    4.3051    9.1425  -22.1323 C   0  0  0  0  0  0  0  0  0  0  0  0
    4.3166    7.9713  -21.7545 O   0  0  0  0  0  0  0  0  0  0  0  0
    5.4147    9.7717  -22.6166 N   0  0  0  0  0  0  0  0  0  0  0  0
  1  2  2  0
  2  3  1  0
  2 27  1  0
  3  4  1  0
  4  5  2  0
  5  6  1  0
  5 25  1  0
  6  7  1  0
  7  8  2  0
  7 12  1  0
  8  9  1  0
  9 10  2  0
 10 11  1  0
 11 12  2  0
 11 15  1  0
 12 13  1  0
 13 14  2  0
 14 15  1  0
 16 15  1  1
 16 17  1  0
 16 23  1  0
 17 18  1  0
 18 19  1  1
 18 21  1  0
 19 20  1  0
 21 22  1  6
 21 23  1  0
 23 24  1  1
 25 26  2  0
 25 27  1  0
M  CHG  1  27  -1
M  END
>  <s_m_entry_id>  (102) 
9

>  <s_m_entry_name>  (102) 
ZINC000226929741.1

>  <s_m_Source_Path>  (102) 
/home/bhw/schrodinger/schrodinger/0995dock

>  <s_m_Source_File>  (102) 
0995dock_pv.maegz

>  <i_m_Source_File_Index>  (102) 
9

>  <zinc_id>  (102) 
ZINC000226929741

>  <smiles>  (102) 
O=c1[nH]nc(Sc2ncnc3c2ncn3[C@H]2O[C@@H](CO)[C@H](O)[C@H]2O)c(=O)[nH]1

>  <chiral flag>  (102) 
0

>  <version>  (102) 
0

>  <i_lp_mmshare_version>  (102) 
44012

>  <s_epik_input>  (102) 
Tz1jMVtuSF1uYyhjKD1PKVtuSF0xKVNjKG5bY0hdbjIpYyhjMjMpbltjSF1uM1tDQEhdNE9bQ0BASF0oW0NIMl1bT0hdKVtDQEhdKFtPSF0pW0NASF00W09IXQ==

>  <s_epik_cmdline>  (102) 
J2VwaWtfcHl0aG9uJywgJy1waCcsICc3LjAnLCAnLXRuJywgJzgnLCAnLW1hJywgJzIwMCcsICctaW1hZScsICc8aW5maWxlLm1hZT4nLCAnLW9tYWUnLCAnPG91dGZpbGUubWFlPic=

>  <r_epik_Ionization_Penalty>  (102) 
0.2048

>  <r_epik_Ionization_Penalty_Charging>  (102) 
0.0001

>  <r_epik_Ionization_Penalty_Neutral>  (102) 
0.2048

>  <r_epik_State_Penalty>  (102) 
0.5277

>  <r_epik_Charging_Adjusted_Penalty>  (102) 
0.527708945587802

>  <i_epik_Tot_Q>  (102) 
-1

>  <i_epik_Tot_abs_Q>  (102) 
1

>  <s_epik_Chemistry_Notes>  (102) 
This compound contains an acetal/aminal-like group ( X-CH(R)-Y where X, Y are N, S, or O) that may be acid/base labile, releasing an aldehyde.

>  <i_f3d_flags>  (102) 
0

>  <s_lp_Force_Field>  (102) 
OPLS_2005

>  <r_lp_Energy>  (102) 
52.921137

>  <b_lp_Chiralities_Consistent>  (102) 
1

>  <s_lp_Variant>  (102) 
ZINC000226929741-2

>  <s_m_job_name>  (102) 
zinc0995

>  <s_i_glide_gridfile>  (102) 
zincglide

>  <i_i_glide_lignum>  (102) 
29423

>  <i_i_glide_rotatable_bonds>  (102) 
7

>  <r_i_docking_score>  (102) 
-6.57640808875155

>  <r_i_glide_ligand_efficiency>  (102) 
-0.243570669953761

>  <r_i_glide_ligand_efficiency_sa>  (102) 
-0.730712009058514

>  <r_i_glide_ligand_efficiency_ln>  (102) 
-1.53087938250049

>  <r_i_glide_gscore>  (102) 
-7.10410808875155

>  <r_i_glide_lipo>  (102) 
-0.413699300427081

>  <r_i_glide_hbond>  (102) 
-0.457816189844518

>  <r_i_glide_metal>  (102) 
0

>  <r_i_glide_rewards>  (102) 
-2.93768050392783

>  <r_i_glide_evdw>  (102) 
-29.9143009185791

>  <r_i_glide_ecoul>  (102) 
-14.0532684326172

>  <r_i_glide_erotb>  (102) 
0.351900792208214

>  <r_i_glide_esite>  (102) 
-0.0431075759387971

>  <r_i_glide_emodel>  (102) 
-63.4708718532434

>  <r_i_glide_energy>  (102) 
-43.9675693511963

>  <r_i_glide_einternal>  (102) 
10.2465028762817

>  <i_i_glide_confnum>  (102) 
5

>  <i_i_glide_posenum>  (102) 
48

>  <r_i_glide_eff_state_penalty>  (102) 
0.5277

>  <s_m_subgroup_title>  (102) 
0995dock_pv

>  <s_m_subgroupid>  (102) 
0995dock_pv

>  <b_m_subgroup_collapsed>  (102) 
0

>  <class>  (102) 
1

>  <isCentroid>  (102) 
flase

$$$$
ZINC000226929756
     RDKit          3D

 27 30  0  0  1  0  0  0  0  0999 V2000
    6.0133   11.7160  -23.4184 O   0  0  0  0  0  0  0  0  0  0  0  0
    5.1261   11.0387  -22.9034 C   0  0  0  0  0  0  0  0  0  0  0  0
    3.9361   11.6240  -22.6158 N   0  0  0  0  0  0  0  0  0  0  0  0
    2.8213   10.9607  -22.1289 N   0  0  0  0  0  0  0  0  0  0  0  0
    2.9006    9.6891  -21.8883 C   0  0  0  0  0  0  0  0  0  0  0  0
    1.4870    8.7469  -21.2714 S   0  0  0  0  0  0  0  0  0  0  0  0
    1.4520    7.1629  -22.0729 C   0  0  0  0  0  0  0  0  0  0  0  0
    1.8116    7.1004  -23.3773 N   0  0  0  0  0  0  0  0  0  0  0  0
    1.6729    5.9426  -24.0293 C   0  0  0  0  0  0  0  0  0  0  0  0
    1.1246    4.7992  -23.6039 N   0  0  0  0  0  0  0  0  0  0  0  0
    0.7214    4.8851  -22.3029 C   0  0  0  0  0  0  0  0  0  0  0  0
    0.8829    6.0193  -21.4586 C   0  0  0  0  0  0  0  0  0  0  0  0
    0.3852    5.7637  -20.1901 N   0  0  0  0  0  0  0  0  0  0  0  0
   -0.0848    4.5229  -20.3319 C   0  0  0  0  0  0  0  0  0  0  0  0
    0.0231    3.9548  -21.5500 N   0  0  0  0  0  0  0  0  0  0  0  0
   -0.5010    2.6361  -22.0234 C   0  0  1  0  0  0  0  0  0  0  0  0
   -0.0762    1.6565  -21.1444 O   0  0  0  0  0  0  0  0  0  0  0  0
   -0.8514    0.4834  -21.3675 C   0  0  1  0  0  0  0  0  0  0  0  0
   -0.9589   -0.3131  -20.0529 C   0  0  0  0  0  0  0  0  0  0  0  0
    0.2062   -1.0864  -19.8178 O   0  0  0  0  0  0  0  0  0  0  0  0
   -2.2054    1.0287  -21.8848 C   0  0  2  0  0  0  0  0  0  0  0  0
   -2.4436    0.5487  -23.1974 O   0  0  0  0  0  0  0  0  0  0  0  0
   -2.0180    2.5502  -21.9243 C   0  0  2  0  0  0  0  0  0  0  0  0
   -2.6982    3.1364  -23.0180 O   0  0  0  0  0  0  0  0  0  0  0  0
    4.2145    8.9921  -22.0836 C   0  0  0  0  0  0  0  0  0  0  0  0
    4.3235    7.8192  -21.7233 O   0  0  0  0  0  0  0  0  0  0  0  0
    5.2484    9.7135  -22.6113 N   0  0  0  0  0  0  0  0  0  0  0  0
  1  2  2  0
  2  3  1  0
  2 27  1  0
  3  4  1  0
  4  5  2  0
  5  6  1  0
  5 25  1  0
  6  7  1  0
  7  8  2  0
  7 12  1  0
  8  9  1  0
  9 10  2  0
 10 11  1  0
 11 12  2  0
 11 15  1  0
 12 13  1  0
 13 14  2  0
 14 15  1  0
 16 15  1  1
 16 17  1  0
 16 23  1  0
 17 18  1  0
 18 19  1  1
 18 21  1  0
 19 20  1  0
 21 22  1  6
 21 23  1  0
 23 24  1  6
 25 26  2  0
 25 27  1  0
M  CHG  1  27  -1
M  END
>  <s_m_entry_id>  (103) 
104

>  <s_m_entry_name>  (103) 
ZINC000226929756.1

>  <s_m_Source_Path>  (103) 
/home/bhw/schrodinger/schrodinger/0995dock

>  <s_m_Source_File>  (103) 
0995dock_pv.maegz

>  <i_m_Source_File_Index>  (103) 
104

>  <zinc_id>  (103) 
ZINC000226929756

>  <smiles>  (103) 
O=c1[nH]nc(Sc2ncnc3c2ncn3[C@H]2O[C@@H](CO)[C@H](O)[C@@H]2O)c(=O)[nH]1

>  <chiral flag>  (103) 
0

>  <version>  (103) 
0

>  <i_lp_mmshare_version>  (103) 
44012

>  <s_epik_input>  (103) 
Tz1jMVtuSF1uYyhjKD1PKVtuSF0xKVNjKG5bY0hdbjIpYyhjMjMpbltjSF1uM1tDQEhdNE9bQ0BASF0oW0NIMl1bT0hdKVtDQEhdKFtPSF0pW0NAQEhdNFtPSF0=

>  <s_epik_cmdline>  (103) 
J2VwaWtfcHl0aG9uJywgJy1waCcsICc3LjAnLCAnLXRuJywgJzgnLCAnLW1hJywgJzIwMCcsICctaW1hZScsICc8aW5maWxlLm1hZT4nLCAnLW9tYWUnLCAnPG91dGZpbGUubWFlPic=

>  <r_epik_Ionization_Penalty>  (103) 
0.2048

>  <r_epik_Ionization_Penalty_Charging>  (103) 
0.0001

>  <r_epik_Ionization_Penalty_Neutral>  (103) 
0.2048

>  <r_epik_State_Penalty>  (103) 
0.5277

>  <r_epik_Charging_Adjusted_Penalty>  (103) 
0.527708945587802

>  <i_epik_Tot_Q>  (103) 
-1

>  <i_epik_Tot_abs_Q>  (103) 
1

>  <s_epik_Chemistry_Notes>  (103) 
This compound contains an acetal/aminal-like group ( X-CH(R)-Y where X, Y are N, S, or O) that may be acid/base labile, releasing an aldehyde.

>  <i_f3d_flags>  (103) 
0

>  <s_lp_Force_Field>  (103) 
OPLS_2005

>  <r_lp_Energy>  (103) 
55.987985

>  <b_lp_Chiralities_Consistent>  (103) 
1

>  <s_lp_Variant>  (103) 
ZINC000226929756-2

>  <s_m_job_name>  (103) 
zinc0995

>  <s_i_glide_gridfile>  (103) 
zincglide

>  <i_i_glide_lignum>  (103) 
29426

>  <i_i_glide_rotatable_bonds>  (103) 
7

>  <r_i_docking_score>  (103) 
-5.92226671535929

>  <r_i_glide_ligand_efficiency>  (103) 
-0.219343211679974

>  <r_i_glide_ligand_efficiency_sa>  (103) 
-0.658029634317002

>  <r_i_glide_ligand_efficiency_ln>  (103) 
-1.37860605513816

>  <r_i_glide_gscore>  (103) 
-6.44996671535929

>  <r_i_glide_lipo>  (103) 
-0.373699760116259

>  <r_i_glide_hbond>  (103) 
-0.436636422309043

>  <r_i_glide_metal>  (103) 
0

>  <r_i_glide_rewards>  (103) 
-1.97234885890333

>  <r_i_glide_evdw>  (103) 
-30.2615375518799

>  <r_i_glide_ecoul>  (103) 
-17.4231815338135

>  <r_i_glide_erotb>  (103) 
0.502715417440306

>  <r_i_glide_esite>  (103) 
-0.0434429838049518

>  <r_i_glide_emodel>  (103) 
-63.9594872021626

>  <r_i_glide_energy>  (103) 
-47.6847190856934

>  <r_i_glide_einternal>  (103) 
12.5840940475464

>  <i_i_glide_confnum>  (103) 
50

>  <i_i_glide_posenum>  (103) 
206

>  <r_i_glide_eff_state_penalty>  (103) 
0.5277

>  <s_m_subgroup_title>  (103) 
0995dock_pv

>  <s_m_subgroupid>  (103) 
0995dock_pv

>  <b_m_subgroup_collapsed>  (103) 
0

>  <class>  (103) 
1

>  <isCentroid>  (103) 
flase

$$$$
ZINC000258114371
     RDKit          3D

 18 19  0  0  1  0  0  0  0  0999 V2000
    6.3236   10.5217  -23.8166 O   0  0  0  0  0  0  0  0  0  0  0  0
    5.6535   11.2416  -23.0431 C   0  0  0  0  0  0  0  0  0  0  0  0
    5.9237   12.4469  -22.8609 O   0  0  0  0  0  0  0  0  0  0  0  0
    4.5003   10.6487  -22.3478 C   0  0  0  0  0  0  0  0  0  0  0  0
    3.6489   11.1179  -21.3874 C   0  0  0  0  0  0  0  0  0  0  0  0
    2.7013   10.0866  -21.1093 C   0  0  0  0  0  0  0  0  0  0  0  0
    2.9815    9.0158  -21.9178 C   0  0  0  0  0  0  0  0  0  0  0  0
    2.3429    7.7127  -22.0893 C   0  0  0  0  0  0  0  0  0  0  0  0
    2.5140    6.9577  -23.2735 C   0  0  0  0  0  0  0  0  0  0  0  0
    1.8963    5.7009  -23.4245 C   0  0  0  0  0  0  0  0  0  0  0  0
    1.0865    5.1773  -22.3959 C   0  0  0  0  0  0  0  0  0  0  0  0
    0.4000    3.8293  -22.5586 C   0  0  0  0  0  0  0  0  0  0  0  0
    0.3242    3.1974  -21.3879 F   0  0  0  0  0  0  0  0  0  0  0  0
   -0.8351    4.0225  -23.0152 F   0  0  0  0  0  0  0  0  0  0  0  0
    1.0603    3.0498  -23.4161 F   0  0  0  0  0  0  0  0  0  0  0  0
    0.8990    5.9324  -21.2185 C   0  0  0  0  0  0  0  0  0  0  0  0
    1.5234    7.1863  -21.0677 C   0  0  0  0  0  0  0  0  0  0  0  0
    4.0967    9.3685  -22.6502 N   0  0  0  0  0  0  0  0  0  0  0  0
  1  2  2  0
  2  3  1  0
  2  4  1  0
  4  5  2  0
  4 18  1  0
  5  6  1  0
  6  7  2  0
  7  8  1  0
  7 18  1  0
  8  9  2  0
  8 17  1  0
  9 10  1  0
 10 11  2  0
 11 12  1  0
 11 16  1  0
 12 13  1  0
 12 14  1  0
 12 15  1  0
 16 17  2  0
M  CHG  1   3  -1
M  END
>  <s_m_entry_id>  (104) 
72

>  <s_m_entry_name>  (104) 
ZINC000258114371.1

>  <s_m_Source_Path>  (104) 
/home/bhw/schrodinger/schrodinger/0995dock

>  <s_m_Source_File>  (104) 
0995dock_pv.maegz

>  <i_m_Source_File_Index>  (104) 
72

>  <zinc_id>  (104) 
ZINC000258114371

>  <smiles>  (104) 
O=C(O)c1ccc(-c2ccc(C(F)(F)F)cc2)[nH]1

>  <chiral flag>  (104) 
0

>  <version>  (104) 
0

>  <i_lp_mmshare_version>  (104) 
44012

>  <s_epik_input>  (104) 
Tz1DKFtPSF0pYzFbY0hdW2NIXWMoW25IXTEpLWMyW2NIXVtjSF1jKEMoRikoRilGKVtjSF1bY0hdMg==

>  <s_epik_cmdline>  (104) 
J2VwaWtfcHl0aG9uJywgJy1waCcsICc3LjAnLCAnLXRuJywgJzgnLCAnLW1hJywgJzIwMCcsICctaW1hZScsICc8aW5maWxlLm1hZT4nLCAnLW9tYWUnLCAnPG91dGZpbGUubWFlPic=

>  <r_epik_Ionization_Penalty>  (104) 
0.0007

>  <r_epik_Ionization_Penalty_Charging>  (104) 
0.0007

>  <r_epik_Ionization_Penalty_Neutral>  (104) 
0.0000

>  <r_epik_State_Penalty>  (104) 
0.0004

>  <r_epik_Charging_Adjusted_Penalty>  (104) 
0.00107300699077583

>  <i_epik_Tot_Q>  (104) 
-1

>  <i_epik_Tot_abs_Q>  (104) 
1

>  <i_f3d_flags>  (104) 
0

>  <s_lp_Force_Field>  (104) 
OPLS_2005

>  <r_lp_Energy>  (104) 
5.632974

>  <b_lp_Chiralities_Consistent>  (104) 
1

>  <s_lp_Variant>  (104) 
ZINC000258114371-1

>  <s_m_job_name>  (104) 
zinc0995

>  <s_i_glide_gridfile>  (104) 
zincglide

>  <i_i_glide_lignum>  (104) 
29905

>  <i_i_glide_rotatable_bonds>  (104) 
3

>  <r_i_docking_score>  (104) 
-6.04016940100079

>  <r_i_glide_ligand_efficiency>  (104) 
-0.335564966722266

>  <r_i_glide_ligand_efficiency_sa>  (104) 
-0.879428997888081

>  <r_i_glide_ligand_efficiency_ln>  (104) 
-1.55259439891348

>  <r_i_glide_gscore>  (104) 
-6.04056940100079

>  <r_i_glide_lipo>  (104) 
-0.807307084555716

>  <r_i_glide_hbond>  (104) 
-0.252821961898221

>  <r_i_glide_metal>  (104) 
0

>  <r_i_glide_rewards>  (104) 
-3.34550947448595

>  <r_i_glide_evdw>  (104) 
-22.2720527648926

>  <r_i_glide_ecoul>  (104) 
-4.61450958251953

>  <r_i_glide_erotb>  (104) 
0.190495602309651

>  <r_i_glide_esite>  (104) 
-0.0196474067479957

>  <r_i_glide_emodel>  (104) 
-42.1166126505157

>  <r_i_glide_energy>  (104) 
-26.8865623474121

>  <r_i_glide_einternal>  (104) 
0.238348498940468

>  <i_i_glide_confnum>  (104) 
2

>  <i_i_glide_posenum>  (104) 
294

>  <r_i_glide_eff_state_penalty>  (104) 
0.0004

>  <s_m_subgroup_title>  (104) 
0995dock_pv

>  <s_m_subgroupid>  (104) 
0995dock_pv

>  <b_m_subgroup_collapsed>  (104) 
0

>  <class>  (104) 
7

>  <isCentroid>  (104) 
flase

$$$$
ZINC000263512682
     RDKit          3D

 18 18  0  0  1  0  0  0  0  0999 V2000
    6.3216   10.1241  -22.2172 O   0  0  0  0  0  0  0  0  0  0  0  0
    5.8806   11.0787  -22.8875 C   0  0  0  0  0  0  0  0  0  0  0  0
    6.3237   11.4266  -24.0029 O   0  0  0  0  0  0  0  0  0  0  0  0
    4.7632   11.9267  -22.2779 C   0  0  0  0  0  0  0  0  0  0  0  0
    3.7013   11.0910  -21.5331 C   0  0  0  0  0  0  0  0  0  0  0  0
    2.9141   10.2315  -22.4181 N   0  0  0  0  0  0  0  0  0  0  0  0
    2.9497    8.8905  -22.4514 C   0  0  0  0  0  0  0  0  0  0  0  0
    3.7641    8.1984  -21.8352 O   0  0  0  0  0  0  0  0  0  0  0  0
    1.9589    8.3928  -23.2046 N   0  0  0  0  0  0  0  0  0  0  0  0
    1.6361    7.0236  -23.2876 C   0  0  0  0  0  0  0  0  0  0  0  0
    0.4163    6.5978  -22.9578 N   0  0  0  0  0  0  0  0  0  0  0  0
    0.3169    5.2004  -23.0147 C   0  0  0  0  0  0  0  0  0  0  0  0
   -0.9593    4.5193  -22.6055 C   0  0  0  0  0  0  0  0  0  0  0  0
   -1.2015    4.6945  -21.3070 F   0  0  0  0  0  0  0  0  0  0  0  0
   -2.0034    4.9987  -23.2808 F   0  0  0  0  0  0  0  0  0  0  0  0
   -0.9042    3.2053  -22.8291 F   0  0  0  0  0  0  0  0  0  0  0  0
    1.4744    4.5949  -23.4439 C   0  0  0  0  0  0  0  0  0  0  0  0
    2.7236    5.7503  -23.8170 S   0  0  0  0  0  0  0  0  0  0  0  0
  1  2  2  0
  2  3  1  0
  2  4  1  0
  4  5  1  0
  5  6  1  0
  6  7  1  0
  7  8  2  0
  7  9  1  0
  9 10  1  0
 10 11  2  0
 10 18  1  0
 11 12  1  0
 12 13  1  0
 12 17  2  0
 13 14  1  0
 13 15  1  0
 13 16  1  0
 17 18  1  0
M  CHG  1   3  -1
M  END
>  <s_m_entry_id>  (105) 
35

>  <s_m_entry_name>  (105) 
ZINC000263512682.1

>  <s_m_Source_Path>  (105) 
/home/bhw/schrodinger/schrodinger/0995dock

>  <s_m_Source_File>  (105) 
0995dock_pv.maegz

>  <i_m_Source_File_Index>  (105) 
35

>  <zinc_id>  (105) 
ZINC000263512682

>  <smiles>  (105) 
O=C(O)CCNC(=O)Nc1nc(C(F)(F)F)cs1

>  <chiral flag>  (105) 
0

>  <version>  (105) 
0

>  <i_lp_mmshare_version>  (105) 
44012

>  <s_epik_input>  (105) 
Tz1DKFtPSF0pW0NIMl1bQ0gyXVtOSF1DKD1PKVtOSF1jMW5jKEMoRikoRilGKVtjSF1zMQ==

>  <s_epik_cmdline>  (105) 
J2VwaWtfcHl0aG9uJywgJy1waCcsICc3LjAnLCAnLXRuJywgJzgnLCAnLW1hJywgJzIwMCcsICctaW1hZScsICc8aW5maWxlLm1hZT4nLCAnLW9tYWUnLCAnPG91dGZpbGUubWFlPic=

>  <r_epik_Ionization_Penalty>  (105) 
0.0020

>  <r_epik_Ionization_Penalty_Charging>  (105) 
0.0019

>  <r_epik_Ionization_Penalty_Neutral>  (105) 
0.0002

>  <r_epik_State_Penalty>  (105) 
0.0013

>  <r_epik_Charging_Adjusted_Penalty>  (105) 
0.00310771038986499

>  <i_epik_Tot_Q>  (105) 
-1

>  <i_epik_Tot_abs_Q>  (105) 
1

>  <i_f3d_flags>  (105) 
0

>  <s_lp_Force_Field>  (105) 
OPLS_2005

>  <r_lp_Energy>  (105) 
4.229365

>  <b_lp_Chiralities_Consistent>  (105) 
1

>  <s_lp_Variant>  (105) 
ZINC000263512682-1

>  <s_m_job_name>  (105) 
zinc0995

>  <s_i_glide_gridfile>  (105) 
zincglide

>  <i_i_glide_lignum>  (105) 
30014

>  <i_i_glide_rotatable_bonds>  (105) 
7

>  <r_i_docking_score>  (105) 
-6.28537935888288

>  <r_i_glide_ligand_efficiency>  (105) 
-0.34918774216016

>  <r_i_glide_ligand_efficiency_sa>  (105) 
-0.915130769347784

>  <r_i_glide_ligand_efficiency_ln>  (105) 
-1.61562435418303

>  <r_i_glide_gscore>  (105) 
-6.28667935888287

>  <r_i_glide_lipo>  (105) 
-0.825003922509994

>  <r_i_glide_hbond>  (105) 
-0.43010958608151

>  <r_i_glide_metal>  (105) 
0

>  <r_i_glide_rewards>  (105) 
-2.55929656263827

>  <r_i_glide_evdw>  (105) 
-23.4815578460693

>  <r_i_glide_ecoul>  (105) 
-13.6379022598267

>  <r_i_glide_erotb>  (105) 
0.794934031797172

>  <r_i_glide_esite>  (105) 
-0.0474400881728076

>  <r_i_glide_emodel>  (105) 
-54.4586799879758

>  <r_i_glide_energy>  (105) 
-37.119460105896

>  <r_i_glide_einternal>  (105) 
5.9631724357605

>  <i_i_glide_confnum>  (105) 
7

>  <i_i_glide_posenum>  (105) 
353

>  <r_i_glide_eff_state_penalty>  (105) 
0.0013

>  <r_lp_tautomer_probability>  (105) 
0.999000488399163

>  <s_m_subgroup_title>  (105) 
0995dock_pv

>  <s_m_subgroupid>  (105) 
0995dock_pv

>  <b_m_subgroup_collapsed>  (105) 
0

>  <class>  (105) 
2

>  <isCentroid>  (105) 
flase

$$$$
ZINC000263544806
     RDKit          3D

 18 18  0  0  1  0  0  0  0  0999 V2000
    4.7942   12.2065  -20.8477 C   0  0  0  0  0  0  0  0  0  0  0  0
    4.4947   11.8087  -22.2976 C   0  0  2  0  0  0  0  0  0  0  0  0
    4.4156   13.0255  -23.0169 O   0  0  0  0  0  0  0  0  0  0  0  0
    3.0903   11.1455  -22.3937 C   0  0  0  0  0  0  0  0  0  0  0  0
    2.9448    9.8682  -21.6948 N   0  0  0  0  0  0  0  0  0  0  0  0
    2.6410    8.7134  -22.4201 C   0  0  0  0  0  0  0  0  0  0  0  0
    3.0998    8.5111  -23.7364 C   0  0  0  0  0  0  0  0  0  0  0  0
    2.7232    7.3378  -24.4102 C   0  0  0  0  0  0  0  0  0  0  0  0
    1.9219    6.3961  -23.7438 C   0  0  0  0  0  0  0  0  0  0  0  0
    1.5199    6.6742  -22.4191 C   0  0  0  0  0  0  0  0  0  0  0  0
    0.6184    5.7132  -21.6502 C   0  0  0  0  0  0  0  0  0  0  0  0
    1.1272    5.4571  -20.4436 F   0  0  0  0  0  0  0  0  0  0  0  0
   -0.5882    6.2598  -21.5007 F   0  0  0  0  0  0  0  0  0  0  0  0
    0.4785    4.5533  -22.2958 F   0  0  0  0  0  0  0  0  0  0  0  0
    1.8796    7.8091  -21.7719 N   0  0  0  0  0  0  0  0  0  0  0  0
    5.6583   10.9212  -22.8299 C   0  0  0  0  0  0  0  0  0  0  0  0
    6.3236   11.3135  -23.8173 O   0  0  0  0  0  0  0  0  0  0  0  0
    5.9234    9.8657  -22.2167 O   0  0  0  0  0  0  0  0  0  0  0  0
  2  1  1  1
  2  3  1  0
  2  4  1  0
  2 16  1  0
  4  5  1  0
  5  6  1  0
  6  7  2  0
  6 15  1  0
  7  8  1  0
  8  9  2  0
  9 10  1  0
 10 11  1  0
 10 15  2  0
 11 12  1  0
 11 13  1  0
 11 14  1  0
 16 17  2  0
 16 18  1  0
M  CHG  1  18  -1
M  END
>  <s_m_entry_id>  (106) 
87

>  <s_m_entry_name>  (106) 
ZINC000263544806.1

>  <s_m_Source_Path>  (106) 
/home/bhw/schrodinger/schrodinger/0995dock

>  <s_m_Source_File>  (106) 
0995dock_pv.maegz

>  <i_m_Source_File_Index>  (106) 
87

>  <zinc_id>  (106) 
ZINC000263544806

>  <smiles>  (106) 
C[C@](O)(CNc1cccc(C(F)(F)F)n1)C(=O)O

>  <chiral flag>  (106) 
0

>  <version>  (106) 
0

>  <i_lp_mmshare_version>  (106) 
44012

>  <s_epik_input>  (106) 
Tz1DKFtPSF0pW0NAQF0oW0NIM10pKFtPSF0pW0NIMl1bTkhdYzFbY0hdW2NIXVtjSF1jKG4xKUMoRikoRilG

>  <s_epik_cmdline>  (106) 
J2VwaWtfcHl0aG9uJywgJy1waCcsICc3LjAnLCAnLXRuJywgJzgnLCAnLW1hJywgJzIwMCcsICctaW1hZScsICc8aW5maWxlLm1hZT4nLCAnLW9tYWUnLCAnPG91dGZpbGUubWFlPic=

>  <r_epik_Ionization_Penalty>  (106) 
0.0006

>  <r_epik_Ionization_Penalty_Charging>  (106) 
0.0006

>  <r_epik_Ionization_Penalty_Neutral>  (106) 
0.0000

>  <r_epik_State_Penalty>  (106) 
0.0004

>  <r_epik_Charging_Adjusted_Penalty>  (106) 
0.000992257192110176

>  <i_epik_Tot_Q>  (106) 
-1

>  <i_epik_Tot_abs_Q>  (106) 
1

>  <i_f3d_flags>  (106) 
0

>  <s_lp_Force_Field>  (106) 
OPLS_2005

>  <r_lp_Energy>  (106) 
6.30646

>  <b_lp_Chiralities_Consistent>  (106) 
1

>  <s_lp_Variant>  (106) 
ZINC000263544806-1

>  <s_m_job_name>  (106) 
zinc0995

>  <s_i_glide_gridfile>  (106) 
zincglide

>  <i_i_glide_lignum>  (106) 
30016

>  <i_i_glide_rotatable_bonds>  (106) 
6

>  <r_i_docking_score>  (106) 
-5.97015175493775

>  <r_i_glide_ligand_efficiency>  (106) 
-0.331675097496542

>  <r_i_glide_ligand_efficiency_sa>  (106) 
-0.869234656599988

>  <r_i_glide_ligand_efficiency_ln>  (106) 
-1.53459672403295

>  <r_i_glide_gscore>  (106) 
-5.97055175493775

>  <r_i_glide_lipo>  (106) 
-0.571813017178957

>  <r_i_glide_hbond>  (106) 
-0.376412277016513

>  <r_i_glide_metal>  (106) 
0

>  <r_i_glide_rewards>  (106) 
-2.66131072529364

>  <r_i_glide_evdw>  (106) 
-19.772647857666

>  <r_i_glide_ecoul>  (106) 
-12.6476497650146

>  <r_i_glide_erotb>  (106) 
0.538236295085148

>  <r_i_glide_esite>  (106) 
-0.0134721728982914

>  <r_i_glide_emodel>  (106) 
-48.5901837301838

>  <r_i_glide_energy>  (106) 
-32.4202976226807

>  <r_i_glide_einternal>  (106) 
3.32681679725647

>  <i_i_glide_confnum>  (106) 
4

>  <i_i_glide_posenum>  (106) 
300

>  <r_i_glide_eff_state_penalty>  (106) 
0.0004

>  <r_lp_tautomer_probability>  (106) 
0.999999772200052

>  <s_m_subgroup_title>  (106) 
0995dock_pv

>  <s_m_subgroupid>  (106) 
0995dock_pv

>  <b_m_subgroup_collapsed>  (106) 
0

>  <class>  (106) 
7

>  <isCentroid>  (106) 
flase

$$$$
ZINC000334160983
     RDKit          3D

 24 25  0  0  1  0  0  0  0  0999 V2000
   -0.5336    3.5563  -19.4895 O   0  0  0  0  0  0  0  0  0  0  0  0
   -0.0753    4.1033  -20.4872 C   0  0  0  0  0  0  0  0  0  0  0  0
    0.3183    5.4002  -20.4967 N   0  0  0  0  0  0  0  0  0  0  0  0
    0.8437    6.0681  -21.5827 N   0  0  0  0  0  0  0  0  0  0  0  0
    0.9942    5.4316  -22.7010 C   0  0  0  0  0  0  0  0  0  0  0  0
    1.6523    6.1694  -24.2099 S   0  0  0  0  0  0  0  0  0  0  0  0
    1.8252    7.9065  -23.7062 C   0  0  0  0  0  0  0  0  0  0  0  0
    0.4949    8.6938  -23.6291 C   0  0  2  0  0  0  0  0  0  0  0  0
    0.0444    8.8365  -24.9618 O   0  0  0  0  0  0  0  0  0  0  0  0
    0.6303   10.1177  -23.0127 C   0  0  1  0  0  0  0  0  0  0  0  0
   -0.4697   10.9124  -23.4228 O   0  0  0  0  0  0  0  0  0  0  0  0
    0.6323   10.2080  -21.4615 C   0  0  0  0  0  0  0  0  0  0  0  0
    2.0448    9.4227  -20.6195 S   0  0  0  0  0  0  0  0  0  0  0  0
    3.4095   10.2267  -21.4703 C   0  0  0  0  0  0  0  0  0  0  0  0
    3.4337   11.4856  -21.7801 N   0  0  0  0  0  0  0  0  0  0  0  0
    4.4998   11.9645  -22.5228 N   0  0  0  0  0  0  0  0  0  0  0  0
    5.5058   11.2001  -23.0174 C   0  0  0  0  0  0  0  0  0  0  0  0
    6.3237   11.7134  -23.7738 O   0  0  0  0  0  0  0  0  0  0  0  0
    5.5203    9.8859  -22.6625 N   0  0  0  0  0  0  0  0  0  0  0  0
    4.5326    9.3342  -21.9064 C   0  0  0  0  0  0  0  0  0  0  0  0
    4.5136    8.1430  -21.5851 O   0  0  0  0  0  0  0  0  0  0  0  0
    0.6021    3.9900  -22.7979 C   0  0  0  0  0  0  0  0  0  0  0  0
    0.7238    3.3322  -23.8286 O   0  0  0  0  0  0  0  0  0  0  0  0
    0.0887    3.4557  -21.6649 N   0  0  0  0  0  0  0  0  0  0  0  0
  1  2  2  0
  2 24  1  0
  2  3  1  0
  3  4  1  0
  4  5  2  0
  5  6  1  0
  5 22  1  0
  6  7  1  0
  7  8  1  0
  8  9  1  6
  8 10  1  0
 10 11  1  6
 10 12  1  0
 12 13  1  0
 13 14  1  0
 14 20  1  0
 14 15  2  0
 15 16  1  0
 16 17  1  0
 17 19  1  0
 17 18  2  0
 19 20  1  0
 20 21  2  0
 22 23  2  0
 22 24  1  0
M  CHG  1  19  -1
M  END
>  <s_m_entry_id>  (107) 
51

>  <s_m_entry_name>  (107) 
ZINC000334160983.1

>  <s_m_Source_Path>  (107) 
/home/bhw/schrodinger/schrodinger/0995dock

>  <s_m_Source_File>  (107) 
0995dock_pv.maegz

>  <i_m_Source_File_Index>  (107) 
51

>  <zinc_id>  (107) 
ZINC000334160983

>  <smiles>  (107) 
Oc1nnc(SC[C@H](O)[C@@H](O)CSc2nnc(O)nc2O)c(O)n1

>  <chiral flag>  (107) 
0

>  <version>  (107) 
0

>  <i_lp_mmshare_version>  (107) 
44012

>  <s_epik_input>  (107) 
W09IXWMxbm5jKGMobjEpW09IXSlTW0NIMl1bQ0BIXShbT0hdKVtDQEBIXShbT0hdKVtDSDJdU2Mybm5jKFtPSF0pbmMyW09IXQ==

>  <s_epik_cmdline>  (107) 
J2VwaWtfcHl0aG9uJywgJy1waCcsICc3LjAnLCAnLXRuJywgJzgnLCAnLW1hJywgJzIwMCcsICctaW1hZScsICc8aW5maWxlLm1hZT4nLCAnLW9tYWUnLCAnPG91dGZpbGUubWFlPic=

>  <r_epik_Ionization_Penalty>  (107) 
1.2712

>  <r_epik_Ionization_Penalty_Charging>  (107) 
1.1511

>  <r_epik_Ionization_Penalty_Neutral>  (107) 
0.1201

>  <r_epik_State_Penalty>  (107) 
1.1533

>  <r_epik_Charging_Adjusted_Penalty>  (107) 
2.30439024455214

>  <i_epik_Tot_Q>  (107) 
-1

>  <i_epik_Tot_abs_Q>  (107) 
1

>  <i_f3d_flags>  (107) 
0

>  <s_lp_Force_Field>  (107) 
OPLS_2005

>  <r_lp_Energy>  (107) 
49.584801

>  <b_lp_Chiralities_Consistent>  (107) 
1

>  <s_lp_Variant>  (107) 
ZINC000334160983-5

>  <s_m_job_name>  (107) 
zinc0995

>  <s_i_glide_gridfile>  (107) 
zincglide

>  <i_i_glide_lignum>  (107) 
30384

>  <i_i_glide_rotatable_bonds>  (107) 
9

>  <r_i_docking_score>  (107) 
-6.15025220628303

>  <r_i_glide_ligand_efficiency>  (107) 
-0.256260508595126

>  <r_i_glide_ligand_efficiency_sa>  (107) 
-0.739183216033103

>  <r_i_glide_ligand_efficiency_ln>  (107) 
-1.47203756964779

>  <r_i_glide_gscore>  (107) 
-7.30355220628303

>  <r_i_glide_lipo>  (107) 
-0.857570096074168

>  <r_i_glide_hbond>  (107) 
-0.456

>  <r_i_glide_metal>  (107) 
0

>  <r_i_glide_rewards>  (107) 
-2.26566039301286

>  <r_i_glide_evdw>  (107) 
-28.2971973419189

>  <r_i_glide_ecoul>  (107) 
-18.3006916046143

>  <r_i_glide_erotb>  (107) 
0.480570841109789

>  <r_i_glide_esite>  (107) 
-0.0449289505177027

>  <r_i_glide_emodel>  (107) 
-71.0310357891854

>  <r_i_glide_energy>  (107) 
-46.5978889465332

>  <r_i_glide_einternal>  (107) 
11.0058727264404

>  <i_i_glide_confnum>  (107) 
165

>  <i_i_glide_posenum>  (107) 
56

>  <r_i_glide_eff_state_penalty>  (107) 
1.1533

>  <s_m_subgroup_title>  (107) 
0995dock_pv

>  <s_m_subgroupid>  (107) 
0995dock_pv

>  <b_m_subgroup_collapsed>  (107) 
0

>  <class>  (107) 
1

>  <isCentroid>  (107) 
flase

$$$$
ZINC000685936753
     RDKit          3D

 19 19  0  0  1  0  0  0  0  0999 V2000
    1.1777    6.3263  -20.6278 C   0  0  0  0  0  0  0  0  0  0  0  0
    1.9113    7.3311  -21.4727 C   0  0  0  0  0  0  0  0  0  0  0  0
    2.3227    8.5834  -21.1119 C   0  0  0  0  0  0  0  0  0  0  0  0
    2.9120    9.1694  -22.2134 N   0  0  0  0  0  0  0  0  0  0  0  0
    3.4926   10.5007  -22.3725 C   0  0  2  0  0  0  0  0  0  0  0  0
    5.0216   10.4431  -22.1196 C   0  0  0  0  0  0  0  0  0  0  0  0
    5.8054   11.4012  -23.0166 C   0  0  0  0  0  0  0  0  0  0  0  0
    5.5206   12.6145  -23.0169 O   0  0  0  0  0  0  0  0  0  0  0  0
    6.7222   10.9133  -23.7069 O   0  0  0  0  0  0  0  0  0  0  0  0
    2.7389   11.5672  -21.5338 C   0  0  0  0  0  0  0  0  0  0  0  0
    1.4244   11.4482  -21.7274 F   0  0  0  0  0  0  0  0  0  0  0  0
    2.9885   11.4143  -20.2325 F   0  0  0  0  0  0  0  0  0  0  0  0
    3.0784   12.8054  -21.8821 F   0  0  0  0  0  0  0  0  0  0  0  0
    2.9632    8.3049  -23.2490 N   0  0  0  0  0  0  0  0  0  0  0  0
    2.3245    7.2170  -22.8354 C   0  0  0  0  0  0  0  0  0  0  0  0
    2.1508    6.0573  -23.7900 C   0  0  0  0  0  0  0  0  0  0  0  0
    1.1274    5.2849  -23.4248 F   0  0  0  0  0  0  0  0  0  0  0  0
    1.9186    6.5152  -25.0171 F   0  0  0  0  0  0  0  0  0  0  0  0
    3.2543    5.3134  -23.8170 F   0  0  0  0  0  0  0  0  0  0  0  0
  1  2  1  0
  2  3  2  0
  2 15  1  0
  3  4  1  0
  4  5  1  0
  4 14  1  0
  5  6  1  1
  5 10  1  0
  6  7  1  0
  7  8  2  0
  7  9  1  0
 10 11  1  0
 10 12  1  0
 10 13  1  0
 14 15  2  0
 15 16  1  0
 16 17  1  0
 16 18  1  0
 16 19  1  0
M  CHG  1   9  -1
M  END
>  <s_m_entry_id>  (108) 
27

>  <s_m_entry_name>  (108) 
ZINC000685936753.1

>  <s_m_Source_Path>  (108) 
/home/bhw/schrodinger/schrodinger/0995dock

>  <s_m_Source_File>  (108) 
0995dock_pv.maegz

>  <i_m_Source_File_Index>  (108) 
27

>  <zinc_id>  (108) 
ZINC000685936753

>  <smiles>  (108) 
Cc1cn([C@H](CC(=O)O)C(F)(F)F)nc1C(F)(F)F

>  <chiral flag>  (108) 
0

>  <version>  (108) 
0

>  <i_lp_mmshare_version>  (108) 
44012

>  <s_epik_input>  (108) 
RkMoRikoRiljMW5uKFtjSF1jMVtDSDNdKVtDQEBIXShDKEYpKEYpRilbQ0gyXUMoPU8pW09IXQ==

>  <s_epik_cmdline>  (108) 
J2VwaWtfcHl0aG9uJywgJy1waCcsICc3LjAnLCAnLXRuJywgJzgnLCAnLW1hJywgJzIwMCcsICctaW1hZScsICc8aW5maWxlLm1hZT4nLCAnLW9tYWUnLCAnPG91dGZpbGUubWFlPic=

>  <r_epik_Ionization_Penalty>  (108) 
0.0003

>  <r_epik_Ionization_Penalty_Charging>  (108) 
0.0003

>  <r_epik_Ionization_Penalty_Neutral>  (108) 
0.0000

>  <r_epik_State_Penalty>  (108) 
0.0000

>  <r_epik_Charging_Adjusted_Penalty>  (108) 
0.000260221123104343

>  <i_epik_Tot_Q>  (108) 
-1

>  <i_epik_Tot_abs_Q>  (108) 
1

>  <i_f3d_flags>  (108) 
0

>  <s_lp_Force_Field>  (108) 
OPLS_2005

>  <r_lp_Energy>  (108) 
11.449054

>  <b_lp_Chiralities_Consistent>  (108) 
1

>  <s_lp_Variant>  (108) 
ZINC000685936753-1

>  <s_m_job_name>  (108) 
zinc0995

>  <s_i_glide_gridfile>  (108) 
zincglide

>  <i_i_glide_lignum>  (108) 
31564

>  <i_i_glide_rotatable_bonds>  (108) 
5

>  <r_i_docking_score>  (108) 
-6.33037689727758

>  <r_i_glide_ligand_efficiency>  (108) 
-0.333177731435662

>  <r_i_glide_ligand_efficiency_sa>  (108) 
-0.889052007007771

>  <r_i_glide_ligand_efficiency_ln>  (108) 
-1.60488650748892

>  <r_i_glide_gscore>  (108) 
-6.33037689727758

>  <r_i_glide_lipo>  (108) 
-0.508696604153687

>  <r_i_glide_hbond>  (108) 
-0.302222263775585

>  <r_i_glide_metal>  (108) 
0

>  <r_i_glide_rewards>  (108) 
-3.70263022560778

>  <r_i_glide_evdw>  (108) 
-20.1919651031494

>  <r_i_glide_ecoul>  (108) 
-7.03453779220581

>  <r_i_glide_erotb>  (108) 
0.304819055483717

>  <r_i_glide_esite>  (108) 
-0.0568679352359038

>  <r_i_glide_emodel>  (108) 
-41.6505457832749

>  <r_i_glide_energy>  (108) 
-27.2265028953552

>  <r_i_glide_einternal>  (108) 
3.61815857887268

>  <i_i_glide_confnum>  (108) 
5

>  <i_i_glide_posenum>  (108) 
169

>  <r_i_glide_eff_state_penalty>  (108) 
0

>  <r_lp_tautomer_probability>  (108) 
1

>  <s_m_subgroup_title>  (108) 
0995dock_pv

>  <s_m_subgroupid>  (108) 
0995dock_pv

>  <b_m_subgroup_collapsed>  (108) 
0

>  <class>  (108) 
10

>  <isCentroid>  (108) 
flase

$$$$
